# File generated by Flopy version 3.9.3 on 06/29/2025 at 15:13:48.
BEGIN options
  TIME_UNITS  days
END options

BEGIN dimensions
  NPER  4
END dimensions

BEGIN perioddata
       1.00000000  1       1.00000000
      50.00000000  150       1.00000000
      50.00000000  150       1.00000000
      50.00000000  150       1.00000000
END perioddata

