# File generated by Flopy version 3.9.3 on 06/29/2025 at 15:13:48.
BEGIN options
  auxiliary  CONCENTRATION
END options

BEGIN dimensions
  MAXBOUND 29
END dimensions

BEGIN period  1
   1 1 1 1.00000000E+01 0.00000000E+01
   1 2 1 1.00000000E+01 0.00000000E+01
   1 3 1 1.00000000E+01 0.00000000E+01
   1 4 1 1.00000000E+01 0.00000000E+01
   1 5 1 1.00000000E+01 0.00000000E+01
   1 6 1 1.00000000E+01 0.00000000E+01
   1 7 1 1.00000000E+01 0.00000000E+01
   1 8 1 1.00000000E+01 0.00000000E+01
   1 9 1 1.00000000E+01 0.00000000E+01
   1 10 1 1.00000000E+01 0.00000000E+01
   1 11 1 1.00000000E+01 0.00000000E+01
   1 12 1 1.00000000E+01 0.00000000E+01
   1 13 1 1.00000000E+01 0.00000000E+01
   1 14 1 1.00000000E+01 0.00000000E+01
   1 15 1 1.00000000E+01 0.00000000E+01
  1 15 10 0.95000000E+01 0.00000000E+01
  1 14 10 0.95000000E+01 0.00000000E+01
  1 13 10 0.95000000E+01 0.00000000E+01
  1 12 10 0.95000000E+01 0.00000000E+01
  1 10 10 0.95000000E+01 0.00000000E+01
  1 11 10 0.95000000E+01 0.00000000E+01
  1 9 10 0.95000000E+01 0.00000000E+01
  1 8 10 0.95000000E+01 0.00000000E+01
  1 7 10 0.95000000E+01 0.00000000E+01
  1 6 10 0.95000000E+01 0.00000000E+01
  1 5 10 0.95000000E+01 0.00000000E+01
  1 4 10 0.95000000E+01 0.00000000E+01
  1 3 10 0.95000000E+01 0.00000000E+01
  1 2 10 0.95000000E+01 0.00000000E+01
  1 1 10 0.95000000E+01 0.00000000E+01
END period  1

