# File generated by Flopy version 3.9.3 on 06/29/2025 at 15:13:48.
BEGIN options
  auxiliary  CONCENTRATION
END options

BEGIN dimensions
  MAXBOUND 29
END dimensions

BEGIN period  1
   1 1 1 1.00000000E+01 0.00000000E+01
   1 2 1 1.00000000E+01 0.00000000E+01
   1 3 1 1.00000000E+01 0.00000000E+01
   1 4 1 1.00000000E+01 0.00000000E+01
   1 5 1 1.00000000E+01 0.00000000E+01
   1 6 1 1.00000000E+01 0.00000000E+01
   1 7 1 1.00000000E+01 0.00000000E+01
   1 8 1 1.00000000E+01 0.00000000E+01
   1 9 1 1.00000000E+01 0.00000000E+01
   1 10 1 1.00000000E+01 0.00000000E+01
   1 11 1 1.00000000E+01 0.00000000E+01
   1 12 1 1.00000000E+01 0.00000000E+01
   1 13 1 1.00000000E+01 0.00000000E+01
   1 14 1 1.00000000E+01 0.00000000E+01
   1 15 1 1.00000000E+01 0.00000000E+01
  1 75 10 0.95000000E+01 0.00000000E+01
  1 140 10 0.95000000E+01 0.00000000E+01
  1 130 10 0.95000000E+01 0.00000000E+01
  1 120 10 0.95000000E+01 0.00000000E+01
  1 100 10 0.95000000E+01 0.00000000E+01
  1 110 10 0.95000000E+01 0.00000000E+01
  1 90 10 0.95000000E+01 0.00000000E+01
  1 80 10 0.95000000E+01 0.00000000E+01
  1 70 10 0.95000000E+01 0.00000000E+01
  1 60 10 0.95000000E+01 0.00000000E+01
  1 50 10 0.95000000E+01 0.00000000E+01
  1 40 10 0.95000000E+01 0.00000000E+01
  1 30 10 0.95000000E+01 0.00000000E+01
  1 20 10 0.95000000E+01 0.00000000E+01
  1 10 10 0.95000000E+01 0.00000000E+01
  1 150 10 0.95000000E+01 0.00000000E+01
  1 140 10 0.95000000E+01 0.00000000E+01
  1 130 10 0.95000000E+01 0.00000000E+01
  1 120 10 0.95000000E+01 0.00000000E+01
  1 100 10 0.95000000E+01 0.00000000E+01
  1 110 10 0.95000000E+01 0.00000000E+01
  1 90 10 0.95000000E+01 0.00000000E+01
  1 80 10 0.95000000E+01 0.00000000E+01
  1 70 10 0.95000000E+01 0.00000000E+01
  1 60 10 0.95000000E+01 0.00000000E+01
  1 50 10 0.95000000E+01 0.00000000E+01
  1 40 10 0.95000000E+01 0.00000000E+01
  1 30 10 0.95000000E+01 0.00000000E+01
  1 20 10 0.95000000E+01 0.00000000E+01
  1 10 10 0.95000000E+01 0.00000000E+01

END period  1

