# File generated by Flopy version 3.9.3 on 06/29/2025 at 15:13:48.
BEGIN options
  SAVE_FLOWS
END options

BEGIN packages
  DIS6  gwf_transbase.dis  dis
  IC6  gwf_transbase.ic  ic
  NPF6  gwf_transbase.npf  npf
  STO6  gwf_transbase.sto  sto
  WEL6  gwf_transbase.wel  wel-1
  CHD6  gwf_transbase.chd  chd-1
  OC6  gwf_transbase.oc  oc
END packages

