# File generated by Flopy version 3.9.3 on 06/29/2025 at 15:13:48.
BEGIN options
  XT3D_OFF
END options

BEGIN griddata
  alh
    CONSTANT       1.00000000
  ath1
    CONSTANT       1.00000000
END griddata

