# File generated by Flopy version 3.9.3 on 06/29/2025 at 15:13:48.
BEGIN options
  PRINT_OPTION  summary
END options

BEGIN nonlinear
  OUTER_DVCLOSE       0.01000000
  OUTER_MAXIMUM  50
  UNDER_RELAXATION  dbd
END nonlinear

BEGIN linear
  INNER_MAXIMUM  100
  INNER_DVCLOSE       0.01000000
  LINEAR_ACCELERATION  bicgstab
  SCALING_METHOD  none
  REORDERING_METHOD  none
END linear

