# File generated by Flopy version 3.9.3 on 06/29/2025 at 15:13:48.
BEGIN options
  SAVE_FLOWS
END options

BEGIN packages
  DIS6  gwt_transbase.dis  dis
  IC6  gwt_transbase.ic  ic
  ADV6  gwt_transbase.adv  adv
  DSP6  gwt_transbase.dsp  dsp
  MST6  gwt_transbase.mst  mst
  SSM6  gwt_transbase.ssm  ssm
  CNC6  gwt_transbase.cnc  cnc_0
  OC6  gwt_transbase.oc  oc
END packages

