# File generated by Flopy version 3.9.3 on 06/29/2025 at 15:13:48.
BEGIN options
END options

BEGIN timing
  TDIS6  gwf_transbase.tdis
END timing

BEGIN models
  gwf6  gwf_transbase.nam  gwf_transbase
  gwt6  gwt_transbase.nam  gwt_transbase
END models

BEGIN exchanges
  GWF6-GWT6  transbase.gwfgwt  gwf_transbase  gwt_transbase
END exchanges

BEGIN solutiongroup  1
  ims6  gwf_transbase.ims  gwf_transbase
  ims6  gwt_transbase.ims  gwt_transbase
END solutiongroup  1

