# File generated by Flopy version 3.9.3 on 06/24/2025 at 20:14:11.
BEGIN options
  auxiliary  CONCENTRATION
END options

BEGIN dimensions
  MAXBOUND  3
END dimensions

BEGIN period  2
  1 5 5 -5.00000000E-02 0
  1 7 5 -5.00000000E-02 0
  1 9 5 -5.00000000E-02 0
END period  2

BEGIN period  3
  1 5 5 -5.00000000E-01 0
  1 7 5 -5.00000000E-01 0
  1 9 5 -5.00000000E-01 0
END period  3

BEGIN period  4
  1 5 5 -5.00000000E-02 0
  1 7 5 -5.00000000E-02 0
  1 9 5 -5.00000000E-02 0
END period  4

