# File generated by Flopy version 3.9.3 on 06/24/2025 at 20:14:11.
BEGIN options
  BUDGET  FILEOUT  gwf_flowbase.bud
  HEAD  FILEOUT  gwf_flowbase.hds
END options

BEGIN period  1
  SAVE  BUDGET  ALL
  SAVE  HEAD  ALL
END period  1

