# File generated by Flopy version 3.9.3 on 06/24/2025 at 20:14:11.
BEGIN options
  SAVE_FLOWS
END options

BEGIN packages
  DIS6  gwf_flowbase.dis  dis
  IC6  gwf_flowbase.ic  ic
  NPF6  gwf_flowbase.npf  npf
  STO6  gwf_flowbase.sto  sto
  CHD6  gwf_flowbase.chd  chd_0
  OC6  gwf_flowbase.oc  oc
END packages

