# File generated by Flopy version 3.9.3 on 06/29/2025 at 15:13:48.
BEGIN options
END options

BEGIN timing
  TDIS6  gwf_flowbase.tdis
END timing

BEGIN models
  gwf6  gwf_flowbase.nam  gwf_flowbase
END models

BEGIN exchanges
END exchanges

BEGIN solutiongroup  1
  ims6  gwf_flowbase.ims  gwf_flowbase
END solutiongroup  1

