# File generated by Flopy version 3.9.3 on 06/24/2025 at 20:14:11.
BEGIN options
  SAVE_FLOWS
END options

BEGIN packages
  DIS6  gwf_riverbase.dis  dis
  IC6  gwf_riverbase.ic  ic
  NPF6  gwf_riverbase.npf  npf
  STO6  gwf_riverbase.sto  sto
  CHD6  gwf_riverbase.chd  chd-1
  OC6  gwf_riverbase.oc  oc
  RIV6  gwf_riverbase.riv  riv-1
END packages

