# File generated by Flopy version 3.9.3 on 06/24/2025 at 20:14:11.
BEGIN options
  LENGTH_UNITS  meters
END options

BEGIN dimensions
  NLAY  3
  NROW  15
  NCOL  10
END dimensions

BEGIN griddata
  delr
    CONSTANT     100.00000000
  delc
    CONSTANT     100.00000000
  top
    CONSTANT      15.00000000
  botm  LAYERED
    CONSTANT      -5.00000000
    CONSTANT     -10.00000000
    CONSTANT     -15.00000000
END griddata

