# File generated by Flopy version 3.9.3 on 06/24/2025 at 20:14:11.
BEGIN options
END options

BEGIN sources
  CHD-1  AUX  CONCENTRATION
END sources

