# File generated by Flopy version 3.9.3 on 06/26/2025 at 09:22:49.
BEGIN options
END options

BEGIN timing
  TDIS6  riverbase.tdis
END timing

BEGIN models
  gwf6  riverbase.nam  riverbase
END models

BEGIN exchanges
END exchanges

BEGIN solutiongroup  1
  ims6  riverbase.ims  riverbase
END solutiongroup  1

