# File generated by Flopy version 3.9.3 on 06/26/2025 at 09:22:49.
BEGIN options
END options

BEGIN griddata
  strt
    CONSTANT       1.00000000
END griddata

