# File generated by Flopy version 3.9.3 on 06/26/2025 at 09:22:49.
BEGIN options
  SAVE_FLOWS
END options

BEGIN packages
  DIS6  riverbase.dis  dis
  IC6  riverbase.ic  ic
  NPF6  riverbase.npf  npf
  STO6  riverbase.sto  sto
  WEL6  riverbase.wel  wel_0
  CHD6  riverbase.chd  chd_0
  OC6  riverbase.oc  oc
END packages

