# File generated by Flopy version 3.9.3 on 06/29/2025 at 15:13:48.
BEGIN options
  auxiliary  CONCENTRATION
END options

BEGIN dimensions
  MAXBOUND  2
END dimensions

BEGIN period  1
  1 1 1 1.00000000E+01 1.00000000E+01
  1 15 10 1.00000000E+01 1.00000000E+01
END period  1

