# File generated by Flopy version 3.9.3 on 06/29/2025 at 15:13:48.
BEGIN options
  auxiliary  CONCENTRATION
END options

BEGIN dimensions
  MAXBOUND  2
END dimensions

BEGIN period  1
  1 1 1 1.00000000E+01 1.00000000E+01
  1 1 2 1.00000000E+01 1.00000000E+01
  1 1 3 1.00000000E+01 1.00000000E+01
  1 1 4 1.00000000E+01 1.00000000E+01
  1 1 5 1.00000000E+01 1.00000000E+01
  1 1 6 1.00000000E+01 1.00000000E+01
  1 1 7 1.00000000E+01 1.00000000E+01
  1 1 8 1.00000000E+01 1.00000000E+01
  1 1 9 1.00000000E+01 1.00000000E+01
  1 1 10 1.00000000E+01 1.00000000E+01
  1 15 1 1.00000000E+01 1.00000000E+01
  1 15 2 1.00000000E+01 1.00000000E+01
  1 15 3 1.00000000E+01 1.00000000E+01
  1 15 4 1.00000000E+01 1.00000000E+01
  1 15 5 1.00000000E+01 1.00000000E+01
  1 15 6 1.00000000E+01 1.00000000E+01
  1 15 7 1.00000000E+01 1.00000000E+01
  1 15 8 1.00000000E+01 1.00000000E+01
  1 15 9 1.00000000E+01 1.00000000E+01
  1 15 10 1.00000000E+01 1.00000000E+01
END period  1

