# File generated by Flopy version 3.9.3 on 06/24/2025 at 20:14:11.
BEGIN options
  SAVE_FLOWS
  SAVE_SPECIFIC_DISCHARGE
END options

BEGIN griddata
  icelltype
    CONSTANT  0
  k  LAYERED
    CONSTANT       0.50000000
    CONSTANT  6.00000000E-06
    CONSTANT       0.50000000
  k33  LAYERED
    CONSTANT       0.10000000
    CONSTANT       0.00200000
    CONSTANT       0.30000000
END griddata

