# File generated by Flopy version 3.9.3 on 06/29/2025 at 15:13:48.
BEGIN options
END options

BEGIN sources
  CHD-1  AUX  CONCENTRATION
END sources

