# File generated by Flopy version 3.9.3 on 06/29/2025 at 15:13:48.
BEGIN options
  SAVE_FLOWS
END options

BEGIN packages
  DIS6  gwt_riverbase.dis  dis
  IC6  gwt_riverbase.ic  ic
  ADV6  gwt_riverbase.adv  adv
  DSP6  gwt_riverbase.dsp  dsp
  MST6  gwt_riverbase.mst  mst
  SSM6  gwt_riverbase.ssm  ssm
  CNC6  gwt_riverbase.cnc  cnc_0
  OC6  gwt_riverbase.oc  oc
END packages

