# File generated by Flopy version 3.9.3 on 06/29/2025 at 15:13:48.
BEGIN options
END options

BEGIN timing
  TDIS6  gwf_riverbase.tdis
END timing

BEGIN models
  gwf6  gwf_riverbase.nam  gwf_riverbase
  gwt6  gwt_riverbase.nam  gwt_riverbase
END models

BEGIN exchanges
  GWF6-GWT6  riverbase.gwfgwt  gwf_riverbase  gwt_riverbase
END exchanges

BEGIN solutiongroup  1
  ims6  gwf_riverbase.ims  gwf_riverbase
  ims6  gwt_riverbase.ims  gwt_riverbase
END solutiongroup  1

