# File generated by Flopy version 3.9.3 on 06/27/2025 at 09:24:56.
BEGIN options
END options

BEGIN dimensions
  MAXBOUND  1
END dimensions

BEGIN period  2
  1 5 5 -5.00000000E-02
END period  2

BEGIN period  3
  1 5 5 -5.00000000E-01
END period  3

BEGIN period  4
  1 5 5 -5.00000000E-02
END period  4

