# File generated by Flopy version 3.9.3 on 06/27/2025 at 09:24:56.
BEGIN options
END options

