# File generated by Flopy version 3.9.3 on 06/27/2025 at 09:24:56.
BEGIN options
  BUDGET  FILEOUT  riverbase.bud
  HEAD  FILEOUT  riverbase.hds
END options

BEGIN period  1
  SAVE  HEAD  ALL
  SAVE  BUDGET  ALL
END period  1

