# File generated by Flopy version 3.9.3 on 06/27/2025 at 09:24:56.
BEGIN options
  SAVE_FLOWS
  SAVE_SPECIFIC_DISCHARGE
END options

BEGIN griddata
  icelltype
    CONSTANT  0
  k
    CONSTANT       0.50000000
  k33
    CONSTANT       0.10000000
END griddata

