# File generated by Flopy version 3.9.3 on 06/29/2025 at 15:13:48.
BEGIN options
  BUDGET  FILEOUT  gwf_transriver.bud
  HEAD  FILEOUT  gwf_transriver.hds
END options

BEGIN period  1
  SAVE  BUDGET  ALL
  SAVE  HEAD  ALL
END period  1

