# File generated by Flopy version 3.9.3 on 06/29/2025 at 15:13:48.
BEGIN options
  SAVE_FLOWS
END options

BEGIN packages
  DIS6  gwf_transriver.dis  dis
  IC6  gwf_transriver.ic  ic
  NPF6  gwf_transriver.npf  npf
  STO6  gwf_transriver.sto  sto
  WEL6  gwf_transriver.wel  wel-1
  CHD6  gwf_transriver.chd  chd-1
  OC6  gwf_transriver.oc  oc
  RIV6  gwf_transriver.riv  riv-1
END packages

