# File generated by Flopy version 3.9.3 on 06/29/2025 at 15:13:48.
BEGIN options
END options

BEGIN dimensions
  MAXBOUND  12
END dimensions

BEGIN period  1
  1 2 1 1.30000000E+01 5.00000000E-02 7.00000000E+00
  1 2 3 1.30909091E+01 5.00000000E-02 7.27272727E+00
  1 3 2 1.31818182E+01 5.00000000E-02 7.54545455E+00
  1 4 3 1.32727273E+01 5.00000000E-02 7.81818182E+00
  1 5 4 1.33636364E+01 5.00000000E-02 8.09090909E+00
  1 6 4 1.34545455E+01 5.00000000E-02 8.36363636E+00
  1 5 5 1.35454545E+01 5.00000000E-02 8.63636364E+00
  1 6 6 1.36363636E+01 5.00000000E-02 8.90909091E+00
  1 7 7 1.37272727E+01 5.00000000E-02 9.18181818E+00
  1 8 8 1.38181818E+01 5.00000000E-02 9.45454545E+00
  1 9 8 1.39090909E+01 5.00000000E-02 9.72727273E+00
  1 8 9 1.40000000E+01 5.00000000E-02 1.00000000E+01
END period  1

