# File generated by Flopy version 3.9.3 on 06/24/2025 at 20:14:11.
BEGIN options
END options

BEGIN dimensions
  MAXBOUND  2
END dimensions

BEGIN period  1
  1 6 2      10.00000000
  1 7 2      10.00000000
END period  1

