# File generated by Flopy version 3.9.3 on 06/24/2025 at 20:14:11.
BEGIN options
  SAVE_FLOWS
END options

BEGIN packages
  DIS6  gwt_transriver.dis  dis
  IC6  gwt_transriver.ic  ic
  ADV6  gwt_transriver.adv  adv
  DSP6  gwt_transriver.dsp  dsp
  MST6  gwt_transriver.mst  mst
  SSM6  gwt_transriver.ssm  ssm
  CNC6  gwt_transriver.cnc  cnc_0
  OC6  gwt_transriver.oc  oc
END packages

