# File generated by Flopy version 3.9.3 on 06/29/2025 at 15:13:48.
BEGIN options
END options

BEGIN timing
  TDIS6  gwf_transriver.tdis
END timing

BEGIN models
  gwf6  gwf_transriver.nam  gwf_transriver
  gwt6  gwt_transriver.nam  gwt_transriver
END models

BEGIN exchanges
  GWF6-GWT6  transriver.gwfgwt  gwf_transriver  gwt_transriver
END exchanges

BEGIN solutiongroup  1
  ims6  gwf_transriver.ims  gwf_transriver
  ims6  gwt_transriver.ims  gwt_transriver
END solutiongroup  1

