# File generated by Flopy version 3.9.3 on 06/27/2025 at 17:15:18.
BEGIN options
END options

BEGIN timing
  TDIS6  transport_river_base.tdis
END timing

BEGIN models
  gwf6  transport_river_base.nam  transport_river_base
END models

BEGIN exchanges
END exchanges

BEGIN solutiongroup  1
  ims6  transport_river_base.ims  transport_river_base
END solutiongroup  1

