# File generated by Flopy version 3.9.3 on 06/27/2025 at 17:15:18.
BEGIN options
END options

