# File generated by Flopy version 3.9.3 on 06/27/2025 at 17:15:18.
BEGIN options
END options

BEGIN dimensions
  MAXBOUND  2
END dimensions

BEGIN period  1
  1 1 1 1.00000000E+00
  1 10 10 1.00000000E+00
END period  1

