# File generated by Flopy version 3.9.3 on 06/27/2025 at 17:15:18.
BEGIN options
  SAVE_FLOWS
END options

BEGIN packages
  DIS6  transport_river_base.dis  dis
  IC6  transport_river_base.ic  ic
  NPF6  transport_river_base.npf  npf
  STO6  transport_river_base.sto  sto
  WEL6  transport_river_base.wel  mywell
  CHD6  transport_river_base.chd  chd_0
  OC6  transport_river_base.oc  oc
END packages

