# File generated by Flopy version 3.9.3 on 06/27/2025 at 17:15:18.
BEGIN options
END options

BEGIN dimensions
  NLAY  1
  NROW  10
  NCOL  10
END dimensions

BEGIN griddata
  delr
    CONSTANT       1.00000000
  delc
    CONSTANT       1.00000000
  top
    CONSTANT       1.00000000
  botm
    CONSTANT       0.00000000
END griddata

