# File generated by Flopy version 3.9.3 on 06/27/2025 at 17:15:18.
BEGIN options
  BUDGET  FILEOUT  transport_river_base.bud
  HEAD  FILEOUT  transport_river_base.hds
END options

BEGIN period  1
  SAVE  HEAD  ALL
  SAVE  BUDGET  ALL
END period  1

