# File generated by Flopy version 3.9.3 on 07/21/2025 at 11:08:37.
BEGIN options
  SAVE_FLOWS
END options

BEGIN packages
  DIS6  gwf_pumptreat.dis  dis
  IC6  gwf_pumptreat.ic  ic
  NPF6  gwf_pumptreat.npf  npf
  STO6  gwf_pumptreat.sto  sto
  CHD6  gwf_pumptreat.chd  chd-1
  WEL6  gwf_pumptreat.wel  wel-1
  OC6  gwf_pumptreat.oc  gwfgwt
END packages

