# File generated by Flopy version 3.9.3 on 07/17/2025 at 18:19:45.
BEGIN options
  SAVE_FLOWS
END options

BEGIN griddata
  iconvert
    CONSTANT  1
  ss
    INTERNAL  FACTOR  1.0  IPRN  1
    1.00000000E-05  1.00000000E-05  1.00000000E-05  1.00000000E-05  1.00000000E-05  1.00000000E-05  1.00000000E-05  1.00000000E-05  1.00000000E-05  1.00000000E-05  1.00000000E-05  1.00000000E-05  1.00000000E-05  1.00000000E-05  1.00000000E-05  1.00000000E-05  1.00000000E-05  1.00000000E-05  1.00000000E-05  1.00000000E-05  1.00000000E-05  1.00000000E-05  1.00000000E-05  1.00000000E-05  1.00000000E-05  1.00000000E-05  1.00000000E-05  1.00000000E-05  1.00000000E-05  1.00000000E-05  1.00000000E-05  1.00000000E-05  1.00000000E-05  1.00000000E-05  1.00000000E-05  1.00000000E-05  1.00000000E-05  1.00000000E-05  1.00000000E-05  1.00000000E-05  1.00000000E-05  1.00000000E-05  1.00000000E-05  1.00000000E-05  1.00000000E-05  1.00000000E-05  1.00000000E-05  1.00000000E-05  1.00000000E-05  1.00000000E-05  1.00000000E-05  1.00000000E-05  1.00000000E-05  1.00000000E-05  1.00000000E-05  1.00000000E-05  1.00000000E-05  1.00000000E-05  1.00000000E-05  1.00000000E-05  1.00000000E-05  1.00000000E-05  1.00000000E-05  1.00000000E-05  1.00000000E-05  1.00000000E-05  1.00000000E-05  1.00000000E-05  1.00000000E-05  1.00000000E-05  1.00000000E-05  1.00000000E-05  1.00000000E-05  1.00000000E-05  1.00000000E-05  1.00000000E-05  1.00000000E-05  1.00000000E-05  1.00000000E-05  1.00000000E-05  1.00000000E-05  1.00000000E-05  1.00000000E-05  1.00000000E-05  1.00000000E-05  1.00000000E-05  1.00000000E-05  1.00000000E-05  1.00000000E-05  1.00000000E-05  1.00000000E-05  1.00000000E-05  1.00000000E-05  1.00000000E-05  1.00000000E-05  1.00000000E-05  1.00000000E-05  1.00000000E-05  1.00000000E-05  1.00000000E-05  1.00000000E-05
    1.00000000E-05  1.00000000E-05  1.00000000E-05  1.00000000E-05  1.00000000E-05  1.00000000E-05  1.00000000E-05  1.00000000E-05  1.00000000E-05  1.00000000E-05  1.00000000E-05  1.00000000E-05  1.00000000E-05  1.00000000E-05  1.00000000E-05  1.00000000E-05  1.00000000E-05  1.00000000E-05  1.00000000E-05  1.00000000E-05  1.00000000E-05  1.00000000E-05  1.00000000E-05  1.00000000E-05  1.00000000E-05  1.00000000E-05  1.00000000E-05  1.00000000E-05  1.00000000E-05  1.00000000E-05  1.00000000E-05  1.00000000E-05  1.00000000E-05  1.00000000E-05  1.00000000E-05  1.00000000E-05  1.00000000E-05  1.00000000E-05  1.00000000E-05  1.00000000E-05  1.00000000E-05  1.00000000E-05  1.00000000E-05  1.00000000E-05  1.00000000E-05  1.00000000E-05  1.00000000E-05  1.00000000E-05  1.00000000E-05  1.00000000E-05  1.00000000E-05  1.00000000E-05  1.00000000E-05  1.00000000E-05  1.00000000E-05  1.00000000E-05  1.00000000E-05  1.00000000E-05  1.00000000E-05  1.00000000E-05  1.00000000E-05  1.00000000E-05  1.00000000E-05  1.00000000E-05  1.00000000E-05  1.00000000E-05  1.00000000E-05  1.00000000E-05  1.00000000E-05  1.00000000E-05  1.00000000E-05  1.00000000E-05  1.00000000E-05  1.00000000E-05  1.00000000E-05  1.00000000E-05  1.00000000E-05  1.00000000E-05  1.00000000E-05  1.00000000E-05  1.00000000E-05  1.00000000E-05  1.00000000E-05  1.00000000E-05  1.00000000E-05  1.00000000E-05  1.00000000E-05  1.00000000E-05  1.00000000E-05  1.00000000E-05  1.00000000E-05  1.00000000E-05  1.00000000E-05  1.00000000E-05  1.00000000E-05  1.00000000E-05  1.00000000E-05  1.00000000E-05  1.00000000E-05  1.00000000E-05  1.00000000E-05
    1.00000000E-05  1.00000000E-05  1.00000000E-05  1.00000000E-05  1.00000000E-05  1.00000000E-05  1.00000000E-05  1.00000000E-05  1.00000000E-05  1.00000000E-05  1.00000000E-05  1.00000000E-05  1.00000000E-05  1.00000000E-05  1.00000000E-05  1.00000000E-05  1.00000000E-05  1.00000000E-05  1.00000000E-05  1.00000000E-05  1.00000000E-05  1.00000000E-05  1.00000000E-05  1.00000000E-05  1.00000000E-05  1.00000000E-05  1.00000000E-05  1.00000000E-05  1.00000000E-05  1.00000000E-05  1.00000000E-05  1.00000000E-05  1.00000000E-05  1.00000000E-05  1.00000000E-05  1.00000000E-05  1.00000000E-05  1.00000000E-05  1.00000000E-05  1.00000000E-05  1.00000000E-05  1.00000000E-05  1.00000000E-05  1.00000000E-05  1.00000000E-05  1.00000000E-05  1.00000000E-05  1.00000000E-05  1.00000000E-05  1.00000000E-05  1.00000000E-05  1.00000000E-05  1.00000000E-05  1.00000000E-05  1.00000000E-05  1.00000000E-05  1.00000000E-05  1.00000000E-05  1.00000000E-05  1.00000000E-05  1.00000000E-05  1.00000000E-05  1.00000000E-05  1.00000000E-05  1.00000000E-05  1.00000000E-05  1.00000000E-05  1.00000000E-05  1.00000000E-05  1.00000000E-05  1.00000000E-05  1.00000000E-05  1.00000000E-05  1.00000000E-05  1.00000000E-05  1.00000000E-05  1.00000000E-05  1.00000000E-05  1.00000000E-05  1.00000000E-05  1.00000000E-05  1.00000000E-05  1.00000000E-05  1.00000000E-05  1.00000000E-05  1.00000000E-05  1.00000000E-05  1.00000000E-05  1.00000000E-05  1.00000000E-05  1.00000000E-05  1.00000000E-05  1.00000000E-05  1.00000000E-05  1.00000000E-05  1.00000000E-05  1.00000000E-05  1.00000000E-05  1.00000000E-05  1.00000000E-05  1.00000000E-05
    1.00000000E-05  1.00000000E-05  1.00000000E-05  1.00000000E-05  1.00000000E-05  1.00000000E-05  1.00000000E-05  1.00000000E-05  1.00000000E-05  1.00000000E-05  1.00000000E-05  1.00000000E-05  1.00000000E-05  1.00000000E-05  1.00000000E-05  1.00000000E-05  1.00000000E-05  1.00000000E-05  1.00000000E-05  1.00000000E-05  1.00000000E-05  1.00000000E-05  1.00000000E-05  1.00000000E-05  1.00000000E-05  1.00000000E-05  1.00000000E-05  1.00000000E-05  1.00000000E-05  1.00000000E-05  1.00000000E-05  1.00000000E-05  1.00000000E-05  1.00000000E-05  1.00000000E-05  1.00000000E-05  1.00000000E-05  1.00000000E-05  1.00000000E-05  1.00000000E-05  1.00000000E-05  1.00000000E-05  1.00000000E-05  1.00000000E-05  1.00000000E-05  1.00000000E-05  1.00000000E-05  1.00000000E-05  1.00000000E-05  1.00000000E-05  1.00000000E-05  1.00000000E-05  1.00000000E-05  1.00000000E-05  1.00000000E-05  1.00000000E-05  1.00000000E-05  1.00000000E-05  1.00000000E-05  1.00000000E-05  1.00000000E-05  1.00000000E-05  1.00000000E-05  1.00000000E-05  1.00000000E-05  1.00000000E-05  1.00000000E-05  1.00000000E-05  1.00000000E-05  1.00000000E-05  1.00000000E-05  1.00000000E-05  1.00000000E-05  1.00000000E-05  1.00000000E-05  1.00000000E-05  1.00000000E-05  1.00000000E-05  1.00000000E-05  1.00000000E-05  1.00000000E-05  1.00000000E-05  1.00000000E-05  1.00000000E-05  1.00000000E-05  1.00000000E-05  1.00000000E-05  1.00000000E-05  1.00000000E-05  1.00000000E-05  1.00000000E-05  1.00000000E-05  1.00000000E-05  1.00000000E-05  1.00000000E-05  1.00000000E-05  1.00000000E-05  1.00000000E-05  1.00000000E-05  1.00000000E-05  1.00000000E-05
    1.00000000E-05  1.00000000E-05  1.00000000E-05  1.00000000E-05  1.00000000E-05  1.00000000E-05  1.00000000E-05  1.00000000E-05  1.00000000E-05  1.00000000E-05  1.00000000E-05  1.00000000E-05  1.00000000E-05  1.00000000E-05  1.00000000E-05  1.00000000E-05  1.00000000E-05  1.00000000E-05  1.00000000E-05  1.00000000E-05  1.00000000E-05  1.00000000E-05  1.00000000E-05  1.00000000E-05  1.00000000E-05  1.00000000E-05  1.00000000E-05  1.00000000E-05  1.00000000E-05  1.00000000E-05  1.00000000E-05  1.00000000E-05  1.00000000E-05  1.00000000E-05  1.00000000E-05  1.00000000E-05  1.00000000E-05  1.00000000E-05  1.00000000E-05  1.00000000E-05  1.00000000E-05  1.00000000E-05  1.00000000E-05  1.00000000E-05  1.00000000E-05  1.00000000E-05  1.00000000E-05  1.00000000E-05  1.00000000E-05  1.00000000E-05  1.00000000E-05  1.00000000E-05  1.00000000E-05  1.00000000E-05  1.00000000E-05  1.00000000E-05  1.00000000E-05  1.00000000E-05  1.00000000E-05  1.00000000E-05  1.00000000E-05  1.00000000E-05  1.00000000E-05  1.00000000E-05  1.00000000E-05  1.00000000E-05  1.00000000E-05  1.00000000E-05  1.00000000E-05  1.00000000E-05  1.00000000E-05  1.00000000E-05  1.00000000E-05  1.00000000E-05  1.00000000E-05  1.00000000E-05  1.00000000E-05  1.00000000E-05  1.00000000E-05  1.00000000E-05  1.00000000E-05  1.00000000E-05  1.00000000E-05  1.00000000E-05  1.00000000E-05  1.00000000E-05  1.00000000E-05  1.00000000E-05  1.00000000E-05  1.00000000E-05  1.00000000E-05  1.00000000E-05  1.00000000E-05  1.00000000E-05  1.00000000E-05  1.00000000E-05  1.00000000E-05  1.00000000E-05  1.00000000E-05  1.00000000E-05  1.00000000E-05
    1.00000000E-05  1.00000000E-05  1.00000000E-05  1.00000000E-05  1.00000000E-05  1.00000000E-05  1.00000000E-05  1.00000000E-05  1.00000000E-05  1.00000000E-05  1.00000000E-05  1.00000000E-05  1.00000000E-05  1.00000000E-05  1.00000000E-05  1.00000000E-05  1.00000000E-05  1.00000000E-05  1.00000000E-05  1.00000000E-05  1.00000000E-05  1.00000000E-05  1.00000000E-05  1.00000000E-05  1.00000000E-05  1.00000000E-05  1.00000000E-05  1.00000000E-05  1.00000000E-05  1.00000000E-05  1.00000000E-05  1.00000000E-05  1.00000000E-05  1.00000000E-05  1.00000000E-05  1.00000000E-05  1.00000000E-05  1.00000000E-05  1.00000000E-05  1.00000000E-05  1.00000000E-05  1.00000000E-05  1.00000000E-05  1.00000000E-05  1.00000000E-05  1.00000000E-05  1.00000000E-05  1.00000000E-05  1.00000000E-05  1.00000000E-05  1.00000000E-05  1.00000000E-05  1.00000000E-05  1.00000000E-05  1.00000000E-05  1.00000000E-05  1.00000000E-05  1.00000000E-05  1.00000000E-05  1.00000000E-05  1.00000000E-05  1.00000000E-05  1.00000000E-05  1.00000000E-05  1.00000000E-05  1.00000000E-05  1.00000000E-05  1.00000000E-05  1.00000000E-05  1.00000000E-05  1.00000000E-05  1.00000000E-05  1.00000000E-05  1.00000000E-05  1.00000000E-05  1.00000000E-05  1.00000000E-05  1.00000000E-05  1.00000000E-05  1.00000000E-05  1.00000000E-05  1.00000000E-05  1.00000000E-05  1.00000000E-05  1.00000000E-05  1.00000000E-05  1.00000000E-05  1.00000000E-05  1.00000000E-05  1.00000000E-05  1.00000000E-05  1.00000000E-05  1.00000000E-05  1.00000000E-05  1.00000000E-05  1.00000000E-05  1.00000000E-05  1.00000000E-05  1.00000000E-05  1.00000000E-05  1.00000000E-05
    1.00000000E-05  1.00000000E-05  1.00000000E-05  1.00000000E-05  1.00000000E-05  1.00000000E-05  1.00000000E-05  1.00000000E-05  1.00000000E-05  1.00000000E-05  1.00000000E-05  1.00000000E-05  1.00000000E-05  1.00000000E-05  1.00000000E-05  1.00000000E-05  1.00000000E-05  1.00000000E-05  1.00000000E-05  1.00000000E-05  1.00000000E-05  1.00000000E-05  1.00000000E-05  1.00000000E-05  1.00000000E-05  1.00000000E-05  1.00000000E-05  1.00000000E-05  1.00000000E-05  1.00000000E-05  1.00000000E-05  1.00000000E-05  1.00000000E-05  1.00000000E-05  1.00000000E-05  1.00000000E-05  1.00000000E-05  1.00000000E-05  1.00000000E-05  1.00000000E-05  1.00000000E-05  1.00000000E-05  1.00000000E-05  1.00000000E-05  1.00000000E-05  1.00000000E-05  1.00000000E-05  1.00000000E-05  1.00000000E-05  1.00000000E-05  1.00000000E-05  1.00000000E-05  1.00000000E-05  1.00000000E-05  1.00000000E-05  1.00000000E-05  1.00000000E-05  1.00000000E-05  1.00000000E-05  1.00000000E-05  1.00000000E-05  1.00000000E-05  1.00000000E-05  1.00000000E-05  1.00000000E-05  1.00000000E-05  1.00000000E-05  1.00000000E-05  1.00000000E-05  1.00000000E-05  1.00000000E-05  1.00000000E-05  1.00000000E-05  1.00000000E-05  1.00000000E-05  1.00000000E-05  1.00000000E-05  1.00000000E-05  1.00000000E-05  1.00000000E-05  1.00000000E-05  1.00000000E-05  1.00000000E-05  1.00000000E-05  1.00000000E-05  1.00000000E-05  1.00000000E-05  1.00000000E-05  1.00000000E-05  1.00000000E-05  1.00000000E-05  1.00000000E-05  1.00000000E-05  1.00000000E-05  1.00000000E-05  1.00000000E-05  1.00000000E-05  1.00000000E-05  1.00000000E-05  1.00000000E-05  1.00000000E-05
    1.00000000E-05  1.00000000E-05  1.00000000E-05  1.00000000E-05  1.00000000E-05  1.00000000E-05  1.00000000E-05  1.00000000E-05  1.00000000E-05  1.00000000E-05  1.00000000E-05  1.00000000E-05  1.00000000E-05  1.00000000E-05  1.00000000E-05  1.00000000E-05  1.00000000E-05  1.00000000E-05  1.00000000E-05  1.00000000E-05  1.00000000E-05  1.00000000E-05  1.00000000E-05  1.00000000E-05  1.00000000E-05  1.00000000E-05  1.00000000E-05  1.00000000E-05  1.00000000E-05  1.00000000E-05  1.00000000E-05  1.00000000E-05  1.00000000E-05  1.00000000E-05  1.00000000E-05  1.00000000E-05  1.00000000E-05  1.00000000E-05  1.00000000E-05  1.00000000E-05  1.00000000E-05  1.00000000E-05  1.00000000E-05  1.00000000E-05  1.00000000E-05  1.00000000E-05  1.00000000E-05  1.00000000E-05  1.00000000E-05  1.00000000E-05  1.00000000E-05  1.00000000E-05  1.00000000E-05  1.00000000E-05  1.00000000E-05  1.00000000E-05  1.00000000E-05  1.00000000E-05  1.00000000E-05  1.00000000E-05  1.00000000E-05  1.00000000E-05  1.00000000E-05  1.00000000E-05  1.00000000E-05  1.00000000E-05  1.00000000E-05  1.00000000E-05  1.00000000E-05  1.00000000E-05  1.00000000E-05  1.00000000E-05  1.00000000E-05  1.00000000E-05  1.00000000E-05  1.00000000E-05  1.00000000E-05  1.00000000E-05  1.00000000E-05  1.00000000E-05  1.00000000E-05  1.00000000E-05  1.00000000E-05  1.00000000E-05  1.00000000E-05  1.00000000E-05  1.00000000E-05  1.00000000E-05  1.00000000E-05  1.00000000E-05  1.00000000E-05  1.00000000E-05  1.00000000E-05  1.00000000E-05  1.00000000E-05  1.00000000E-05  1.00000000E-05  1.00000000E-05  1.00000000E-05  1.00000000E-05  1.00000000E-05
    1.00000000E-05  1.00000000E-05  1.00000000E-05  1.00000000E-05  1.00000000E-05  1.00000000E-05  1.00000000E-05  1.00000000E-05  1.00000000E-05  1.00000000E-05  1.00000000E-05  1.00000000E-05  1.00000000E-05  1.00000000E-05  1.00000000E-05  1.00000000E-05  1.00000000E-05  1.00000000E-05  1.00000000E-05  1.00000000E-05  1.00000000E-05  1.00000000E-05  1.00000000E-05  1.00000000E-05  1.00000000E-05  1.00000000E-05  1.00000000E-05  1.00000000E-05  1.00000000E-05  1.00000000E-05  1.00000000E-05  1.00000000E-05  1.00000000E-05  1.00000000E-05  1.00000000E-05  1.00000000E-05  1.00000000E-05  1.00000000E-05  1.00000000E-05  1.00000000E-05  1.00000000E-05  1.00000000E-05  1.00000000E-05  1.00000000E-05  1.00000000E-05  1.00000000E-05  1.00000000E-05  1.00000000E-05  1.00000000E-05  1.00000000E-05  1.00000000E-05  1.00000000E-05  1.00000000E-05  1.00000000E-05  1.00000000E-05  1.00000000E-05  1.00000000E-05  1.00000000E-05  1.00000000E-05  1.00000000E-05  1.00000000E-05  1.00000000E-05  1.00000000E-05  1.00000000E-05  1.00000000E-05  1.00000000E-05  1.00000000E-05  1.00000000E-05  1.00000000E-05  1.00000000E-05  1.00000000E-05  1.00000000E-05  1.00000000E-05  1.00000000E-05  1.00000000E-05  1.00000000E-05  1.00000000E-05  1.00000000E-05  1.00000000E-05  1.00000000E-05  1.00000000E-05  1.00000000E-05  1.00000000E-05  1.00000000E-05  1.00000000E-05  1.00000000E-05  1.00000000E-05  1.00000000E-05  1.00000000E-05  1.00000000E-05  1.00000000E-05  1.00000000E-05  1.00000000E-05  1.00000000E-05  1.00000000E-05  1.00000000E-05  1.00000000E-05  1.00000000E-05  1.00000000E-05  1.00000000E-05  1.00000000E-05
    1.00000000E-05  1.00000000E-05  1.00000000E-05  1.00000000E-05  1.00000000E-05  1.00000000E-05  1.00000000E-05  1.00000000E-05  1.00000000E-05  1.00000000E-05  1.00000000E-05  1.00000000E-05  1.00000000E-05  1.00000000E-05  1.00000000E-05  1.00000000E-05  1.00000000E-05  1.00000000E-05  1.00000000E-05  1.00000000E-05  1.00000000E-05  1.00000000E-05  1.00000000E-05  1.00000000E-05  1.00000000E-05  1.00000000E-05  1.00000000E-05  1.00000000E-05  1.00000000E-05  1.00000000E-05  1.00000000E-05  1.00000000E-05  1.00000000E-05  1.00000000E-05  1.00000000E-05  1.00000000E-05  1.00000000E-05  1.00000000E-05  1.00000000E-05  1.00000000E-05  1.00000000E-05  1.00000000E-05  1.00000000E-05  1.00000000E-05  1.00000000E-05  1.00000000E-05  1.00000000E-05  1.00000000E-05  1.00000000E-05  1.00000000E-05  1.00000000E-05  1.00000000E-05  1.00000000E-05  1.00000000E-05  1.00000000E-05  1.00000000E-05  1.00000000E-05  1.00000000E-05  1.00000000E-05  1.00000000E-05  1.00000000E-05  1.00000000E-05  1.00000000E-05  1.00000000E-05  1.00000000E-05  1.00000000E-05  1.00000000E-05  1.00000000E-05  1.00000000E-05  1.00000000E-05  1.00000000E-05  1.00000000E-05  1.00000000E-05  1.00000000E-05  1.00000000E-05  1.00000000E-05  1.00000000E-05  1.00000000E-05  1.00000000E-05  1.00000000E-05  1.00000000E-05  1.00000000E-05  1.00000000E-05  1.00000000E-05  1.00000000E-05  1.00000000E-05  1.00000000E-05  1.00000000E-05  1.00000000E-05  1.00000000E-05  1.00000000E-05  1.00000000E-05  1.00000000E-05  1.00000000E-05  1.00000000E-05  1.00000000E-05  1.00000000E-05  1.00000000E-05  1.00000000E-05  1.00000000E-05  1.00000000E-05
    1.00000000E-05  1.00000000E-05  1.00000000E-05  1.00000000E-05  1.00000000E-05  1.00000000E-05  1.00000000E-05  1.00000000E-05  1.00000000E-05  1.00000000E-05  1.00000000E-05  1.00000000E-05  1.00000000E-05  1.00000000E-05  1.00000000E-05  1.00000000E-05  1.00000000E-05  1.00000000E-05  1.00000000E-05  1.00000000E-05  1.00000000E-05  1.00000000E-05  1.00000000E-05  1.00000000E-05  1.00000000E-05  1.00000000E-05  1.00000000E-05  1.00000000E-05  1.00000000E-05  1.00000000E-05  1.00000000E-05  1.00000000E-05  1.00000000E-05  1.00000000E-05  1.00000000E-05  1.00000000E-05  1.00000000E-05  1.00000000E-05  1.00000000E-05  1.00000000E-05  1.00000000E-05  1.00000000E-05  1.00000000E-05  1.00000000E-05  1.00000000E-05  1.00000000E-05  1.00000000E-05  1.00000000E-05  1.00000000E-05  1.00000000E-05  1.00000000E-05  1.00000000E-05  1.00000000E-05  1.00000000E-05  1.00000000E-05  1.00000000E-05  1.00000000E-05  1.00000000E-05  1.00000000E-05  1.00000000E-05  1.00000000E-05  1.00000000E-05  1.00000000E-05  1.00000000E-05  1.00000000E-05  1.00000000E-05  1.00000000E-05  1.00000000E-05  1.00000000E-05  1.00000000E-05  1.00000000E-05  1.00000000E-05  1.00000000E-05  1.00000000E-05  1.00000000E-05  1.00000000E-05  1.00000000E-05  1.00000000E-05  1.00000000E-05  1.00000000E-05  1.00000000E-05  1.00000000E-05  1.00000000E-05  1.00000000E-05  1.00000000E-05  1.00000000E-05  1.00000000E-05  1.00000000E-05  1.00000000E-05  1.00000000E-05  1.00000000E-05  1.00000000E-05  1.00000000E-05  1.00000000E-05  1.00000000E-05  1.00000000E-05  1.00000000E-05  1.00000000E-05  1.00000000E-05  1.00000000E-05  1.00000000E-05
    1.00000000E-05  1.00000000E-05  1.00000000E-05  1.00000000E-05  1.00000000E-05  1.00000000E-05  1.00000000E-05  1.00000000E-05  1.00000000E-05  1.00000000E-05  1.00000000E-05  1.00000000E-05  1.00000000E-05  1.00000000E-05  1.00000000E-05  1.00000000E-05  1.00000000E-05  1.00000000E-05  1.00000000E-05  1.00000000E-05  1.00000000E-05  1.00000000E-05  1.00000000E-05  1.00000000E-05  1.00000000E-05  1.00000000E-05  1.00000000E-05  1.00000000E-05  1.00000000E-05  1.00000000E-05  1.00000000E-05  1.00000000E-05  1.00000000E-05  1.00000000E-05  1.00000000E-05  1.00000000E-05  1.00000000E-05  1.00000000E-05  1.00000000E-05  1.00000000E-05  1.00000000E-05  1.00000000E-05  1.00000000E-05  1.00000000E-05  1.00000000E-05  1.00000000E-05  1.00000000E-05  1.00000000E-05  1.00000000E-05  1.00000000E-05  1.00000000E-05  1.00000000E-05  1.00000000E-05  1.00000000E-05  1.00000000E-05  1.00000000E-05  1.00000000E-05  1.00000000E-05  1.00000000E-05  1.00000000E-05  1.00000000E-05  1.00000000E-05  1.00000000E-05  1.00000000E-05  1.00000000E-05  1.00000000E-05  1.00000000E-05  1.00000000E-05  1.00000000E-05  1.00000000E-05  1.00000000E-05  1.00000000E-05  1.00000000E-05  1.00000000E-05  1.00000000E-05  1.00000000E-05  1.00000000E-05  1.00000000E-05  1.00000000E-05  1.00000000E-05  1.00000000E-05  1.00000000E-05  1.00000000E-05  1.00000000E-05  1.00000000E-05  1.00000000E-05  1.00000000E-05  1.00000000E-05  1.00000000E-05  1.00000000E-05  1.00000000E-05  1.00000000E-05  1.00000000E-05  1.00000000E-05  1.00000000E-05  1.00000000E-05  1.00000000E-05  1.00000000E-05  1.00000000E-05  1.00000000E-05  1.00000000E-05
    1.00000000E-05  1.00000000E-05  1.00000000E-05  1.00000000E-05  1.00000000E-05  1.00000000E-05  1.00000000E-05  1.00000000E-05  1.00000000E-05  1.00000000E-05  1.00000000E-05  1.00000000E-05  1.00000000E-05  1.00000000E-05  1.00000000E-05  1.00000000E-05  1.00000000E-05  1.00000000E-05  1.00000000E-05  1.00000000E-05  1.00000000E-05  1.00000000E-05  1.00000000E-05  1.00000000E-05  1.00000000E-05  1.00000000E-05  1.00000000E-05  1.00000000E-05  1.00000000E-05  1.00000000E-05  1.00000000E-05  1.00000000E-05  1.00000000E-05  1.00000000E-05  1.00000000E-05  1.00000000E-05  1.00000000E-05  1.00000000E-05  1.00000000E-05  1.00000000E-05  1.00000000E-05  1.00000000E-05  1.00000000E-05  1.00000000E-05  1.00000000E-05  1.00000000E-05  1.00000000E-05  1.00000000E-05  1.00000000E-05  1.00000000E-05  1.00000000E-05  1.00000000E-05  1.00000000E-05  1.00000000E-05  1.00000000E-05  1.00000000E-05  1.00000000E-05  1.00000000E-05  1.00000000E-05  1.00000000E-05  1.00000000E-05  1.00000000E-05  1.00000000E-05  1.00000000E-05  1.00000000E-05  1.00000000E-05  1.00000000E-05  1.00000000E-05  1.00000000E-05  1.00000000E-05  1.00000000E-05  1.00000000E-05  1.00000000E-05  1.00000000E-05  1.00000000E-05  1.00000000E-05  1.00000000E-05  1.00000000E-05  1.00000000E-05  1.00000000E-05  1.00000000E-05  1.00000000E-05  1.00000000E-05  1.00000000E-05  1.00000000E-05  1.00000000E-05  1.00000000E-05  1.00000000E-05  1.00000000E-05  1.00000000E-05  1.00000000E-05  1.00000000E-05  1.00000000E-05  1.00000000E-05  1.00000000E-05  1.00000000E-05  1.00000000E-05  1.00000000E-05  1.00000000E-05  1.00000000E-05  1.00000000E-05
    1.00000000E-05  1.00000000E-05  1.00000000E-05  1.00000000E-05  1.00000000E-05  1.00000000E-05  1.00000000E-05  1.00000000E-05  1.00000000E-05  1.00000000E-05  1.00000000E-05  1.00000000E-05  1.00000000E-05  1.00000000E-05  1.00000000E-05  1.00000000E-05  1.00000000E-05  1.00000000E-05  1.00000000E-05  1.00000000E-05  1.00000000E-05  1.00000000E-05  1.00000000E-05  1.00000000E-05  1.00000000E-05  1.00000000E-05  1.00000000E-05  1.00000000E-05  1.00000000E-05  1.00000000E-05  1.00000000E-05  1.00000000E-05  1.00000000E-05  1.00000000E-05  1.00000000E-05  1.00000000E-05  1.00000000E-05  1.00000000E-05  1.00000000E-05  1.00000000E-05  1.00000000E-05  1.00000000E-05  1.00000000E-05  1.00000000E-05  1.00000000E-05  1.00000000E-05  1.00000000E-05  1.00000000E-05  1.00000000E-05  1.00000000E-05  1.00000000E-05  1.00000000E-05  1.00000000E-05  1.00000000E-05  1.00000000E-05  1.00000000E-05  1.00000000E-05  1.00000000E-05  1.00000000E-05  1.00000000E-05  1.00000000E-05  1.00000000E-05  1.00000000E-05  1.00000000E-05  1.00000000E-05  1.00000000E-05  1.00000000E-05  1.00000000E-05  1.00000000E-05  1.00000000E-05  1.00000000E-05  1.00000000E-05  1.00000000E-05  1.00000000E-05  1.00000000E-05  1.00000000E-05  1.00000000E-05  1.00000000E-05  1.00000000E-05  1.00000000E-05  1.00000000E-05  1.00000000E-05  1.00000000E-05  1.00000000E-05  1.00000000E-05  1.00000000E-05  1.00000000E-05  1.00000000E-05  1.00000000E-05  1.00000000E-05  1.00000000E-05  1.00000000E-05  1.00000000E-05  1.00000000E-05  1.00000000E-05  1.00000000E-05  1.00000000E-05  1.00000000E-05  1.00000000E-05  1.00000000E-05  1.00000000E-05
    1.00000000E-05  1.00000000E-05  1.00000000E-05  1.00000000E-05  1.00000000E-05  1.00000000E-05  1.00000000E-05  1.00000000E-05  1.00000000E-05  1.00000000E-05  1.00000000E-05  1.00000000E-05  1.00000000E-05  1.00000000E-05  1.00000000E-05  1.00000000E-05  1.00000000E-05  1.00000000E-05  1.00000000E-05  1.00000000E-05  1.00000000E-05  1.00000000E-05  1.00000000E-05  1.00000000E-05  1.00000000E-05  1.00000000E-05  1.00000000E-05  1.00000000E-05  1.00000000E-05  1.00000000E-05  1.00000000E-05  1.00000000E-05  1.00000000E-05  1.00000000E-05  1.00000000E-05  1.00000000E-05  1.00000000E-05  1.00000000E-05  1.00000000E-05  1.00000000E-05  1.00000000E-05  1.00000000E-05  1.00000000E-05  1.00000000E-05  1.00000000E-05  1.00000000E-05  1.00000000E-05  1.00000000E-05  1.00000000E-05  1.00000000E-05  1.00000000E-05  1.00000000E-05  1.00000000E-05  1.00000000E-05  1.00000000E-05  1.00000000E-05  1.00000000E-05  1.00000000E-05  1.00000000E-05  1.00000000E-05  1.00000000E-05  1.00000000E-05  1.00000000E-05  1.00000000E-05  1.00000000E-05  1.00000000E-05  1.00000000E-05  1.00000000E-05  1.00000000E-05  1.00000000E-05  1.00000000E-05  1.00000000E-05  1.00000000E-05  1.00000000E-05  1.00000000E-05  1.00000000E-05  1.00000000E-05  1.00000000E-05  1.00000000E-05  1.00000000E-05  1.00000000E-05  1.00000000E-05  1.00000000E-05  1.00000000E-05  1.00000000E-05  1.00000000E-05  1.00000000E-05  1.00000000E-05  1.00000000E-05  1.00000000E-05  1.00000000E-05  1.00000000E-05  1.00000000E-05  1.00000000E-05  1.00000000E-05  1.00000000E-05  1.00000000E-05  1.00000000E-05  1.00000000E-05  1.00000000E-05  1.00000000E-05
    1.00000000E-05  1.00000000E-05  1.00000000E-05  1.00000000E-05  1.00000000E-05  1.00000000E-05  1.00000000E-05  1.00000000E-05  1.00000000E-05  1.00000000E-05  1.00000000E-05  1.00000000E-05  1.00000000E-05  1.00000000E-05  1.00000000E-05  1.00000000E-05  1.00000000E-05  1.00000000E-05  1.00000000E-05  1.00000000E-05  1.00000000E-05  1.00000000E-05  1.00000000E-05  1.00000000E-05  1.00000000E-05  1.00000000E-05  1.00000000E-05  1.00000000E-05  1.00000000E-05  1.00000000E-05  1.00000000E-05  1.00000000E-05  1.00000000E-05  1.00000000E-05  1.00000000E-05  1.00000000E-05  1.00000000E-05  1.00000000E-05  1.00000000E-05  1.00000000E-05  1.00000000E-05  1.00000000E-05  1.00000000E-05  1.00000000E-05  1.00000000E-05  1.00000000E-05  1.00000000E-05  1.00000000E-05  1.00000000E-05  1.00000000E-05  1.00000000E-05  1.00000000E-05  1.00000000E-05  1.00000000E-05  1.00000000E-05  1.00000000E-05  1.00000000E-05  1.00000000E-05  1.00000000E-05  1.00000000E-05  1.00000000E-05  1.00000000E-05  1.00000000E-05  1.00000000E-05  1.00000000E-05  1.00000000E-05  1.00000000E-05  1.00000000E-05  1.00000000E-05  1.00000000E-05  1.00000000E-05  1.00000000E-05  1.00000000E-05  1.00000000E-05  1.00000000E-05  1.00000000E-05  1.00000000E-05  1.00000000E-05  1.00000000E-05  1.00000000E-05  1.00000000E-05  1.00000000E-05  1.00000000E-05  1.00000000E-05  1.00000000E-05  1.00000000E-05  1.00000000E-05  1.00000000E-05  1.00000000E-05  1.00000000E-05  1.00000000E-05  1.00000000E-05  1.00000000E-05  1.00000000E-05  1.00000000E-05  1.00000000E-05  1.00000000E-05  1.00000000E-05  1.00000000E-05  1.00000000E-05  1.00000000E-05
    1.00000000E-05  1.00000000E-05  1.00000000E-05  1.00000000E-05  1.00000000E-05  1.00000000E-05  1.00000000E-05  1.00000000E-05  1.00000000E-05  1.00000000E-05  1.00000000E-05  1.00000000E-05  1.00000000E-05  1.00000000E-05  1.00000000E-05  1.00000000E-05  1.00000000E-05  1.00000000E-05  1.00000000E-05  1.00000000E-05  1.00000000E-05  1.00000000E-05  1.00000000E-05  1.00000000E-05  1.00000000E-05  1.00000000E-05  1.00000000E-05  1.00000000E-05  1.00000000E-05  1.00000000E-05  1.00000000E-05  1.00000000E-05  1.00000000E-05  1.00000000E-05  1.00000000E-05  1.00000000E-05  1.00000000E-05  1.00000000E-05  1.00000000E-05  1.00000000E-05  1.00000000E-05  1.00000000E-05  1.00000000E-05  1.00000000E-05  1.00000000E-05  1.00000000E-05  1.00000000E-05  1.00000000E-05  1.00000000E-05  1.00000000E-05  1.00000000E-05  1.00000000E-05  1.00000000E-05  1.00000000E-05  1.00000000E-05  1.00000000E-05  1.00000000E-05  1.00000000E-05  1.00000000E-05  1.00000000E-05  1.00000000E-05  1.00000000E-05  1.00000000E-05  1.00000000E-05  1.00000000E-05  1.00000000E-05  1.00000000E-05  1.00000000E-05  1.00000000E-05  1.00000000E-05  1.00000000E-05  1.00000000E-05  1.00000000E-05  1.00000000E-05  1.00000000E-05  1.00000000E-05  1.00000000E-05  1.00000000E-05  1.00000000E-05  1.00000000E-05  1.00000000E-05  1.00000000E-05  1.00000000E-05  1.00000000E-05  1.00000000E-05  1.00000000E-05  1.00000000E-05  1.00000000E-05  1.00000000E-05  1.00000000E-05  1.00000000E-05  1.00000000E-05  1.00000000E-05  1.00000000E-05  1.00000000E-05  1.00000000E-05  1.00000000E-05  1.00000000E-05  1.00000000E-05  1.00000000E-05  1.00000000E-05
    1.00000000E-05  1.00000000E-05  1.00000000E-05  1.00000000E-05  1.00000000E-05  1.00000000E-05  1.00000000E-05  1.00000000E-05  1.00000000E-05  1.00000000E-05  1.00000000E-05  1.00000000E-05  1.00000000E-05  1.00000000E-05  1.00000000E-05  1.00000000E-05  1.00000000E-05  1.00000000E-05  1.00000000E-05  1.00000000E-05  1.00000000E-05  1.00000000E-05  1.00000000E-05  1.00000000E-05  1.00000000E-05  1.00000000E-05  1.00000000E-05  1.00000000E-05  1.00000000E-05  1.00000000E-05  1.00000000E-05  1.00000000E-05  1.00000000E-05  1.00000000E-05  1.00000000E-05  1.00000000E-05  1.00000000E-05  1.00000000E-05  1.00000000E-05  1.00000000E-05  1.00000000E-05  1.00000000E-05  1.00000000E-05  1.00000000E-05  1.00000000E-05  1.00000000E-05  1.00000000E-05  1.00000000E-05  1.00000000E-05  1.00000000E-05  1.00000000E-05  1.00000000E-05  1.00000000E-05  1.00000000E-05  1.00000000E-05  1.00000000E-05  1.00000000E-05  1.00000000E-05  1.00000000E-05  1.00000000E-05  1.00000000E-05  1.00000000E-05  1.00000000E-05  1.00000000E-05  1.00000000E-05  1.00000000E-05  1.00000000E-05  1.00000000E-05  1.00000000E-05  1.00000000E-05  1.00000000E-05  1.00000000E-05  1.00000000E-05  1.00000000E-05  1.00000000E-05  1.00000000E-05  1.00000000E-05  1.00000000E-05  1.00000000E-05  1.00000000E-05  1.00000000E-05  1.00000000E-05  1.00000000E-05  1.00000000E-05  1.00000000E-05  1.00000000E-05  1.00000000E-05  1.00000000E-05  1.00000000E-05  1.00000000E-05  1.00000000E-05  1.00000000E-05  1.00000000E-05  1.00000000E-05  1.00000000E-05  1.00000000E-05  1.00000000E-05  1.00000000E-05  1.00000000E-05  1.00000000E-05  1.00000000E-05