# File generated by Flopy version 3.9.3 on 07/21/2025 at 11:08:37.
BEGIN options
  BUDGET  FILEOUT  gwf_pumptreat.bud
  HEAD  FILEOUT  gwf_pumptreat.hds
END options

BEGIN period  1
  SAVE  HEAD  ALL
  SAVE  BUDGET  ALL
END period  1

