# File generated by Flopy version 3.9.3 on 07/17/2025 at 18:19:46.
BEGIN options
  BUDGET  FILEOUT  gwf_pumptreat.bud
  HEAD  FILEOUT  gwf_pumptreat.hds
END options

BEGIN period  1
  SAVE  HEAD  LAST
  SAVE  BUDGET  LAST
END period  1

