# File generated by Flopy version 3.9.3 on 07/17/2025 at 18:19:45.
BEGIN options
END options

BEGIN griddata
  strt
    INTERNAL  FACTOR  1.0
        25.00000000      25.00000000      25.00000000      25.00000000      25.00000000      25.00000000      25.00000000      25.00000000      25.00000000      25.00000000      25.00000000      25.00000000      25.00000000      25.00000000      25.00000000      25.00000000      25.00000000      25.00000000      25.00000000      25.00000000      25.00000000      25.00000000      25.00000000      25.00000000      25.00000000      25.00000000      25.00000000      25.00000000      25.00000000      25.00000000      25.00000000      25.00000000      25.00000000      25.00000000      25.00000000      25.00000000      25.00000000      25.00000000      25.00000000      25.00000000      25.00000000      25.00000000      25.00000000      25.00000000      25.00000000      25.00000000      25.00000000      25.00000000      25.00000000      25.00000000      25.00000000      25.00000000      25.00000000      25.00000000      25.00000000      25.00000000      25.00000000      25.00000000      25.00000000      25.00000000      25.00000000      25.00000000      25.00000000      25.00000000      25.00000000      25.00000000      25.00000000      25.00000000      25.00000000      25.00000000      25.00000000      25.00000000      25.00000000      25.00000000      25.00000000      25.00000000      25.00000000      25.00000000      25.00000000      25.00000000      25.00000000      25.00000000      25.00000000      25.00000000      25.00000000      25.00000000      25.00000000      25.00000000      25.00000000      25.00000000      25.00000000      25.00000000      25.00000000      25.00000000      25.00000000      25.00000000      25.00000000      25.00000000      25.00000000      25.00000000      25.00000000
        25.00000000      25.00000000      25.00000000      25.00000000      25.00000000      25.00000000      25.00000000      25.00000000      25.00000000      25.00000000      25.00000000      25.00000000      25.00000000      25.00000000      25.00000000      25.00000000      25.00000000      25.00000000      25.00000000      25.00000000      25.00000000      25.00000000      25.00000000      25.00000000      25.00000000      25.00000000      25.00000000      25.00000000      25.00000000      25.00000000      25.00000000      25.00000000      25.00000000      25.00000000      25.00000000      25.00000000      25.00000000      25.00000000      25.00000000      25.00000000      25.00000000      25.00000000      25.00000000      25.00000000      25.00000000      25.00000000      25.00000000      25.00000000      25.00000000      25.00000000      25.00000000      25.00000000      25.00000000      25.00000000      25.00000000      25.00000000      25.00000000      25.00000000      25.00000000      25.00000000      25.00000000      25.00000000      25.00000000      25.00000000      25.00000000      25.00000000      25.00000000      25.00000000      25.00000000      25.00000000      25.00000000      25.00000000      25.00000000      25.00000000      25.00000000      25.00000000      25.00000000      25.00000000      25.00000000      25.00000000      25.00000000      25.00000000      25.00000000      25.00000000      25.00000000      25.00000000      25.00000000      25.00000000      25.00000000      25.00000000      25.00000000      25.00000000      25.00000000      25.00000000      25.00000000      25.00000000      25.00000000      25.00000000      25.00000000      25.00000000      25.00000000
        25.00000000      25.00000000      25.00000000      25.00000000      25.00000000      25.00000000      25.00000000      25.00000000      25.00000000      25.00000000      25.00000000      25.00000000      25.00000000      25.00000000      25.00000000      25.00000000      25.00000000      25.00000000      25.00000000      25.00000000      25.00000000      25.00000000      25.00000000      25.00000000      25.00000000      25.00000000      25.00000000      25.00000000      25.00000000      25.00000000      25.00000000      25.00000000      25.00000000      25.00000000      25.00000000      25.00000000      25.00000000      25.00000000      25.00000000      25.00000000      25.00000000      25.00000000      25.00000000      25.00000000      25.00000000      25.00000000      25.00000000      25.00000000      25.00000000      25.00000000      25.00000000      25.00000000      25.00000000      25.00000000      25.00000000      25.00000000      25.00000000      25.00000000      25.00000000      25.00000000      25.00000000      25.00000000      25.00000000      25.00000000      25.00000000      25.00000000      25.00000000      25.00000000      25.00000000      25.00000000      25.00000000      25.00000000      25.00000000      25.00000000      25.00000000      25.00000000      25.00000000      25.00000000      25.00000000      25.00000000      25.00000000      25.00000000      25.00000000      25.00000000      25.00000000      25.00000000      25.00000000      25.00000000      25.00000000      25.00000000      25.00000000      25.00000000      25.00000000      25.00000000      25.00000000      25.00000000      25.00000000      25.00000000      25.00000000      25.00000000      25.00000000
        25.00000000      25.00000000      25.00000000      25.00000000      25.00000000      25.00000000      25.00000000      25.00000000      25.00000000      25.00000000      25.00000000      25.00000000      25.00000000      25.00000000      25.00000000      25.00000000      25.00000000      25.00000000      25.00000000      25.00000000      25.00000000      25.00000000      25.00000000      25.00000000      25.00000000      25.00000000      25.00000000      25.00000000      25.00000000      25.00000000      25.00000000      25.00000000      25.00000000      25.00000000      25.00000000      25.00000000      25.00000000      25.00000000      25.00000000      25.00000000      25.00000000      25.00000000      25.00000000      25.00000000      25.00000000      25.00000000      25.00000000      25.00000000      25.00000000      25.00000000      25.00000000      25.00000000      25.00000000      25.00000000      25.00000000      25.00000000      25.00000000      25.00000000      25.00000000      25.00000000      25.00000000      25.00000000      25.00000000      25.00000000      25.00000000      25.00000000      25.00000000      25.00000000      25.00000000      25.00000000      25.00000000      25.00000000      25.00000000      25.00000000      25.00000000      25.00000000      25.00000000      25.00000000      25.00000000      25.00000000      25.00000000      25.00000000      25.00000000      25.00000000      25.00000000      25.00000000      25.00000000      25.00000000      25.00000000      25.00000000      25.00000000      25.00000000      25.00000000      25.00000000      25.00000000      25.00000000      25.00000000      25.00000000      25.00000000      25.00000000      25.00000000
        25.00000000      25.00000000      25.00000000      25.00000000      25.00000000      25.00000000      25.00000000      25.00000000      25.00000000      25.00000000      25.00000000      25.00000000      25.00000000      25.00000000      25.00000000      25.00000000      25.00000000      25.00000000      25.00000000      25.00000000      25.00000000      25.00000000      25.00000000      25.00000000      25.00000000      25.00000000      25.00000000      25.00000000      25.00000000      25.00000000      25.00000000      25.00000000      25.00000000      25.00000000      25.00000000      25.00000000      25.00000000      25.00000000      25.00000000      25.00000000      25.00000000      25.00000000      25.00000000      25.00000000      25.00000000      25.00000000      25.00000000      25.00000000      25.00000000      25.00000000      25.00000000      25.00000000      25.00000000      25.00000000      25.00000000      25.00000000      25.00000000      25.00000000      25.00000000      25.00000000      25.00000000      25.00000000      25.00000000      25.00000000      25.00000000      25.00000000      25.00000000      25.00000000      25.00000000      25.00000000      25.00000000      25.00000000      25.00000000      25.00000000      25.00000000      25.00000000      25.00000000      25.00000000      25.00000000      25.00000000      25.00000000      25.00000000      25.00000000      25.00000000      25.00000000      25.00000000      25.00000000      25.00000000      25.00000000      25.00000000      25.00000000      25.00000000      25.00000000      25.00000000      25.00000000      25.00000000      25.00000000      25.00000000      25.00000000      25.00000000      25.00000000
        25.00000000      25.00000000      25.00000000      25.00000000      25.00000000      25.00000000      25.00000000      25.00000000      25.00000000      25.00000000      25.00000000      25.00000000      25.00000000      25.00000000      25.00000000      25.00000000      25.00000000      25.00000000      25.00000000      25.00000000      25.00000000      25.00000000      25.00000000      25.00000000      25.00000000      25.00000000      25.00000000      25.00000000      25.00000000      25.00000000      25.00000000      25.00000000      25.00000000      25.00000000      25.00000000      25.00000000      25.00000000      25.00000000      25.00000000      25.00000000      25.00000000      25.00000000      25.00000000      25.00000000      25.00000000      25.00000000      25.00000000      25.00000000      25.00000000      25.00000000      25.00000000      25.00000000      25.00000000      25.00000000      25.00000000      25.00000000      25.00000000      25.00000000      25.00000000      25.00000000      25.00000000      25.00000000      25.00000000      25.00000000      25.00000000      25.00000000      25.00000000      25.00000000      25.00000000      25.00000000      25.00000000      25.00000000      25.00000000      25.00000000      25.00000000      25.00000000      25.00000000      25.00000000      25.00000000      25.00000000      25.00000000      25.00000000      25.00000000      25.00000000      25.00000000      25.00000000      25.00000000      25.00000000      25.00000000      25.00000000      25.00000000      25.00000000      25.00000000      25.00000000      25.00000000      25.00000000      25.00000000      25.00000000      25.00000000      25.00000000      25.00000000
        25.00000000      25.00000000      25.00000000      25.00000000      25.00000000      25.00000000      25.00000000      25.00000000      25.00000000      25.00000000      25.00000000      25.00000000      25.00000000      25.00000000      25.00000000      25.00000000      25.00000000      25.00000000      25.00000000      25.00000000      25.00000000      25.00000000      25.00000000      25.00000000      25.00000000      25.00000000      25.00000000      25.00000000      25.00000000      25.00000000      25.00000000      25.00000000      25.00000000      25.00000000      25.00000000      25.00000000      25.00000000      25.00000000      25.00000000      25.00000000      25.00000000      25.00000000      25.00000000      25.00000000      25.00000000      25.00000000      25.00000000      25.00000000      25.00000000      25.00000000      25.00000000      25.00000000      25.00000000      25.00000000      25.00000000      25.00000000      25.00000000      25.00000000      25.00000000      25.00000000      25.00000000      25.00000000      25.00000000      25.00000000      25.00000000      25.00000000      25.00000000      25.00000000      25.00000000      25.00000000      25.00000000      25.00000000      25.00000000      25.00000000      25.00000000      25.00000000      25.00000000      25.00000000      25.00000000      25.00000000      25.00000000      25.00000000      25.00000000      25.00000000      25.00000000      25.00000000      25.00000000      25.00000000      25.00000000      25.00000000      25.00000000      25.00000000      25.00000000      25.00000000      25.00000000      25.00000000      25.00000000      25.00000000      25.00000000      25.00000000      25.00000000
        25.00000000      25.00000000      25.00000000      25.00000000      25.00000000      25.00000000      25.00000000      25.00000000      25.00000000      25.00000000      25.00000000      25.00000000      25.00000000      25.00000000      25.00000000      25.00000000      25.00000000      25.00000000      25.00000000      25.00000000      25.00000000      25.00000000      25.00000000      25.00000000      25.00000000      25.00000000      25.00000000      25.00000000      25.00000000      25.00000000      25.00000000      25.00000000      25.00000000      25.00000000      25.00000000      25.00000000      25.00000000      25.00000000      25.00000000      25.00000000      25.00000000      25.00000000      25.00000000      25.00000000      25.00000000      25.00000000      25.00000000      25.00000000      25.00000000      25.00000000      25.00000000      25.00000000      25.00000000      25.00000000      25.00000000      25.00000000      25.00000000      25.00000000      25.00000000      25.00000000      25.00000000      25.00000000      25.00000000      25.00000000      25.00000000      25.00000000      25.00000000      25.00000000      25.00000000      25.00000000      25.00000000      25.00000000      25.00000000      25.00000000      25.00000000      25.00000000      25.00000000      25.00000000      25.00000000      25.00000000      25.00000000      25.00000000      25.00000000      25.00000000      25.00000000      25.00000000      25.00000000      25.00000000      25.00000000      25.00000000      25.00000000      25.00000000      25.00000000      25.00000000      25.00000000      25.00000000      25.00000000      25.00000000      25.00000000      25.00000000      25.00000000
        25.00000000      25.00000000      25.00000000      25.00000000      25.00000000      25.00000000      25.00000000      25.00000000      25.00000000      25.00000000      25.00000000      25.00000000      25.00000000      25.00000000      25.00000000      25.00000000      25.00000000      25.00000000      25.00000000      25.00000000      25.00000000      25.00000000      25.00000000      25.00000000      25.00000000      25.00000000      25.00000000      25.00000000      25.00000000      25.00000000      25.00000000      25.00000000      25.00000000      25.00000000      25.00000000      25.00000000      25.00000000      25.00000000      25.00000000      25.00000000      25.00000000      25.00000000      25.00000000      25.00000000      25.00000000      25.00000000      25.00000000      25.00000000      25.00000000      25.00000000      25.00000000      25.00000000      25.00000000      25.00000000      25.00000000      25.00000000      25.00000000      25.00000000      25.00000000      25.00000000      25.00000000      25.00000000      25.00000000      25.00000000      25.00000000      25.00000000      25.00000000      25.00000000      25.00000000      25.00000000      25.00000000      25.00000000      25.00000000      25.00000000      25.00000000      25.00000000      25.00000000      25.00000000      25.00000000      25.00000000      25.00000000      25.00000000      25.00000000      25.00000000      25.00000000      25.00000000      25.00000000      25.00000000      25.00000000      25.00000000      25.00000000      25.00000000      25.00000000      25.00000000      25.00000000      25.00000000      25.00000000      25.00000000      25.00000000      25.00000000      25.00000000
        25.00000000      25.00000000      25.00000000      25.00000000      25.00000000      25.00000000      25.00000000      25.00000000      25.00000000      25.00000000      25.00000000      25.00000000      25.00000000      25.00000000      25.00000000      25.00000000      25.00000000      25.00000000      25.00000000      25.00000000      25.00000000      25.00000000      25.00000000      25.00000000      25.00000000      25.00000000      25.00000000      25.00000000      25.00000000      25.00000000      25.00000000      25.00000000      25.00000000      25.00000000      25.00000000      25.00000000      25.00000000      25.00000000      25.00000000      25.00000000      25.00000000      25.00000000      25.00000000      25.00000000      25.00000000      25.00000000      25.00000000      25.00000000      25.00000000      25.00000000      25.00000000      25.00000000      25.00000000      25.00000000      25.00000000      25.00000000      25.00000000      25.00000000      25.00000000      25.00000000      25.00000000      25.00000000      25.00000000      25.00000000      25.00000000      25.00000000      25.00000000      25.00000000      25.00000000      25.00000000      25.00000000      25.00000000      25.00000000      25.00000000      25.00000000      25.00000000      25.00000000      25.00000000      25.00000000      25.00000000      25.00000000      25.00000000      25.00000000      25.00000000      25.00000000      25.00000000      25.00000000      25.00000000      25.00000000      25.00000000      25.00000000      25.00000000      25.00000000      25.00000000      25.00000000      25.00000000      25.00000000      25.00000000      25.00000000      25.00000000      25.00000000
        25.00000000      25.00000000      25.00000000      25.00000000      25.00000000      25.00000000      25.00000000      25.00000000      25.00000000      25.00000000      25.00000000      25.00000000      25.00000000      25.00000000      25.00000000      25.00000000      25.00000000      25.00000000      25.00000000      25.00000000      25.00000000      25.00000000      25.00000000      25.00000000      25.00000000      25.00000000      25.00000000      25.00000000      25.00000000      25.00000000      25.00000000      25.00000000      25.00000000      25.00000000      25.00000000      25.00000000      25.00000000      25.00000000      25.00000000      25.00000000      25.00000000      25.00000000      25.00000000      25.00000000      25.00000000      25.00000000      25.00000000      25.00000000      25.00000000      25.00000000      25.00000000      25.00000000      25.00000000      25.00000000      25.00000000      25.00000000      25.00000000      25.00000000      25.00000000      25.00000000      25.00000000      25.00000000      25.00000000      25.00000000      25.00000000      25.00000000      25.00000000      25.00000000      25.00000000      25.00000000      25.00000000      25.00000000      25.00000000      25.00000000      25.00000000      25.00000000      25.00000000      25.00000000      25.00000000      25.00000000      25.00000000      25.00000000      25.00000000      25.00000000      25.00000000      25.00000000      25.00000000      25.00000000      25.00000000      25.00000000      25.00000000      25.00000000      25.00000000      25.00000000      25.00000000      25.00000000      25.00000000      25.00000000      25.00000000      25.00000000      25.00000000
        25.00000000      25.00000000      25.00000000      25.00000000      25.00000000      25.00000000      25.00000000      25.00000000      25.00000000      25.00000000      25.00000000      25.00000000      25.00000000      25.00000000      25.00000000      25.00000000      25.00000000      25.00000000      25.00000000      25.00000000      25.00000000      25.00000000      25.00000000      25.00000000      25.00000000      25.00000000      25.00000000      25.00000000      25.00000000      25.00000000      25.00000000      25.00000000      25.00000000      25.00000000      25.00000000      25.00000000      25.00000000      25.00000000      25.00000000      25.00000000      25.00000000      25.00000000      25.00000000      25.00000000      25.00000000      25.00000000      25.00000000      25.00000000      25.00000000      25.00000000      25.00000000      25.00000000      25.00000000      25.00000000      25.00000000      25.00000000      25.00000000      25.00000000      25.00000000      25.00000000      25.00000000      25.00000000      25.00000000      25.00000000      25.00000000      25.00000000      25.00000000      25.00000000      25.00000000      25.00000000      25.00000000      25.00000000      25.00000000      25.00000000      25.00000000      25.00000000      25.00000000      25.00000000      25.00000000      25.00000000      25.00000000      25.00000000      25.00000000      25.00000000      25.00000000      25.00000000      25.00000000      25.00000000      25.00000000      25.00000000      25.00000000      25.00000000      25.00000000      25.00000000      25.00000000      25.00000000      25.00000000      25.00000000      25.00000000      25.00000000      25.00000000
        25.00000000      25.00000000      25.00000000      25.00000000      25.00000000      25.00000000      25.00000000      25.00000000      25.00000000      25.00000000      25.00000000      25.00000000      25.00000000      25.00000000      25.00000000      25.00000000      25.00000000      25.00000000      25.00000000      25.00000000      25.00000000      25.00000000      25.00000000      25.00000000      25.00000000      25.00000000      25.00000000      25.00000000      25.00000000      25.00000000      25.00000000      25.00000000      25.00000000      25.00000000      25.00000000      25.00000000      25.00000000      25.00000000      25.00000000      25.00000000      25.00000000      25.00000000      25.00000000      25.00000000      25.00000000      25.00000000      25.00000000      25.00000000      25.00000000      25.00000000      25.00000000      25.00000000      25.00000000      25.00000000      25.00000000      25.00000000      25.00000000      25.00000000      25.00000000      25.00000000      25.00000000      25.00000000      25.00000000      25.00000000      25.00000000      25.00000000      25.00000000      25.00000000      25.00000000      25.00000000      25.00000000      25.00000000      25.00000000      25.00000000      25.00000000      25.00000000      25.00000000      25.00000000      25.00000000      25.00000000      25.00000000      25.00000000      25.00000000      25.00000000      25.00000000      25.00000000      25.00000000      25.00000000      25.00000000      25.00000000      25.00000000      25.00000000      25.00000000      25.00000000      25.00000000      25.00000000      25.00000000      25.00000000      25.00000000      25.00000000      25.00000000
        25.00000000      25.00000000      25.00000000      25.00000000      25.00000000      25.00000000      25.00000000      25.00000000      25.00000000      25.00000000      25.00000000      25.00000000      25.00000000      25.00000000      25.00000000      25.00000000      25.00000000      25.00000000      25.00000000      25.00000000      25.00000000      25.00000000      25.00000000      25.00000000      25.00000000      25.00000000      25.00000000      25.00000000      25.00000000      25.00000000      25.00000000      25.00000000      25.00000000      25.00000000      25.00000000      25.00000000      25.00000000      25.00000000      25.00000000      25.00000000      25.00000000      25.00000000      25.00000000      25.00000000      25.00000000      25.00000000      25.00000000      25.00000000      25.00000000      25.00000000      25.00000000      25.00000000      25.00000000      25.00000000      25.00000000      25.00000000      25.00000000      25.00000000      25.00000000      25.00000000      25.00000000      25.00000000      25.00000000      25.00000000      25.00000000      25.00000000      25.00000000      25.00000000      25.00000000      25.00000000      25.00000000      25.00000000      25.00000000      25.00000000      25.00000000      25.00000000      25.00000000      25.00000000      25.00000000      25.00000000      25.00000000      25.00000000      25.00000000      25.00000000      25.00000000      25.00000000      25.00000000      25.00000000      25.00000000      25.00000000      25.00000000      25.00000000      25.00000000      25.00000000      25.00000000      25.00000000      25.00000000      25.00000000      25.00000000      25.00000000      25.00000000
        25.00000000      25.00000000      25.00000000      25.00000000      25.00000000      25.00000000      25.00000000      25.00000000      25.00000000      25.00000000      25.00000000      25.00000000      25.00000000      25.00000000      25.00000000      25.00000000      25.00000000      25.00000000      25.00000000      25.00000000      25.00000000      25.00000000      25.00000000      25.00000000      25.00000000      25.00000000      25.00000000      25.00000000      25.00000000      25.00000000      25.00000000      25.00000000      25.00000000      25.00000000      25.00000000      25.00000000      25.00000000      25.00000000      25.00000000      25.00000000      25.00000000      25.00000000      25.00000000      25.00000000      25.00000000      25.00000000      25.00000000      25.00000000      25.00000000      25.00000000      25.00000000      25.00000000      25.00000000      25.00000000      25.00000000      25.00000000      25.00000000      25.00000000      25.00000000      25.00000000      25.00000000      25.00000000      25.00000000      25.00000000      25.00000000      25.00000000      25.00000000      25.00000000      25.00000000      25.00000000      25.00000000      25.00000000      25.00000000      25.00000000      25.00000000      25.00000000      25.00000000      25.00000000      25.00000000      25.00000000      25.00000000      25.00000000      25.00000000      25.00000000      25.00000000      25.00000000      25.00000000      25.00000000      25.00000000      25.00000000      25.00000000      25.00000000      25.00000000      25.00000000      25.00000000      25.00000000      25.00000000      25.00000000      25.00000000      25.00000000      25.00000000
        25.00000000      25.00000000      25.00000000      25.00000000      25.00000000      25.00000000      25.00000000      25.00000000      25.00000000      25.00000000      25.00000000      25.00000000      25.00000000      25.00000000      25.00000000      25.00000000      25.00000000      25.00000000      25.00000000      25.00000000      25.00000000      25.00000000      25.00000000      25.00000000      25.00000000      25.00000000      25.00000000      25.00000000      25.00000000      25.00000000      25.00000000      25.00000000      25.00000000      25.00000000      25.00000000      25.00000000      25.00000000      25.00000000      25.00000000      25.00000000      25.00000000      25.00000000      25.00000000      25.00000000      25.00000000      25.00000000      25.00000000      25.00000000      25.00000000      25.00000000      25.00000000      25.00000000      25.00000000      25.00000000      25.00000000      25.00000000      25.00000000      25.00000000      25.00000000      25.00000000      25.00000000      25.00000000      25.00000000      25.00000000      25.00000000      25.00000000      25.00000000      25.00000000      25.00000000      25.00000000      25.00000000      25.00000000      25.00000000      25.00000000      25.00000000      25.00000000      25.00000000      25.00000000      25.00000000      25.00000000      25.00000000      25.00000000      25.00000000      25.00000000      25.00000000      25.00000000      25.00000000      25.00000000      25.00000000      25.00000000      25.00000000      25.00000000      25.00000000      25.00000000      25.00000000      25.00000000      25.00000000      25.00000000      25.00000000      25.00000000      25.00000000
        25.00000000      25.00000000      25.00000000      25.00000000      25.00000000      25.00000000      25.00000000      25.00000000      25.00000000      25.00000000      25.00000000      25.00000000      25.00000000      25.00000000      25.00000000      25.00000000      25.00000000      25.00000000      25.00000000      25.00000000      25.00000000      25.00000000      25.00000000      25.00000000      25.00000000      25.00000000      25.00000000      25.00000000      25.00000000      25.00000000      25.00000000      25.00000000      25.00000000      25.00000000      25.00000000      25.00000000      25.00000000      25.00000000      25.00000000      25.00000000      25.00000000      25.00000000      25.00000000      25.00000000      25.00000000      25.00000000      25.00000000      25.00000000      25.00000000      25.00000000      25.00000000      25.00000000      25.00000000      25.00000000      25.00000000      25.00000000      25.00000000      25.00000000      25.00000000      25.00000000      25.00000000      25.00000000      25.00000000      25.00000000      25.00000000      25.00000000      25.00000000      25.00000000      25.00000000      25.00000000      25.00000000      25.00000000      25.00000000      25.00000000      25.00000000      25.00000000      25.00000000      25.00000000      25.00000000      25.00000000      25.00000000      25.00000000      25.00000000      25.00000000      25.00000000      25.00000000      25.00000000      25.00000000      25.00000000      25.00000000      25.00000000      25.00000000      25.00000000      25.00000000      25.00000000      25.00000000      25.00000000      25.00000000      25.00000000      25.00000000      25.00000000