# File generated by Flopy version 3.9.3 on 07/21/2025 at 11:08:37.
BEGIN options
  SAVE_FLOWS
  SAVE_SPECIFIC_DISCHARGE
END options

BEGIN griddata
  icelltype
    CONSTANT  1
  k
    CONSTANT       1.00000000
  k33
    CONSTANT       0.30000000
END griddata

