# File generated by Flopy version 3.9.3 on 07/21/2025 at 11:08:37.
BEGIN options
  BUDGET  FILEOUT  gwt_pumptreat.cbc
  CONCENTRATION  FILEOUT  gwt_pumptreat.ucn
END options

BEGIN period  1
  SAVE  CONCENTRATION  LAST
  PRINT  CONCENTRATION  LAST
END period  1

