# File generated by Flopy version 3.9.3 on 07/09/2025 at 10:04:43.
BEGIN options
END options

BEGIN packages
  DIS6  gwt_pumptreat.dis  dis
  IC6  gwt_pumptreat.ic  ic
  ADV6  gwt_pumptreat.adv  adv
  DSP6  gwt_pumptreat.dsp  dsp
  MST6  gwt_pumptreat.mst  mst
  SSM6  gwt_pumptreat.ssm  ssm
  CNC6  gwt_pumptreat.cnc  cnc
  OC6  gwt_pumptreat.oc  oc
END packages

