# File generated by Flopy version 3.9.3 on 07/09/2025 at 10:04:43.
BEGIN options
  SCHEME  upstream
END options

