# File generated by Flopy version 3.9.3 on 07/21/2025 at 11:08:37.
BEGIN options
END options

BEGIN griddata
  strt
    CONSTANT       0.00000000
END griddata

