# File generated by Flopy version 3.9.3 on 07/09/2025 at 10:04:43.
BEGIN options
END options

BEGIN griddata
  alh
    CONSTANT       1.00000000
  ath1
    CONSTANT       0.50000000
END griddata

