# File generated by Flopy version 3.9.3 on 07/21/2025 at 11:08:37.
BEGIN options
END options

BEGIN timing
  TDIS6  gwf_pumptreat.tdis
END timing

BEGIN models
  gwf6  gwf_pumptreat.nam  gwf_pumptreat
  gwt6  gwt_pumptreat.nam  gwt_pumptreat
END models

BEGIN exchanges
  GWF6-GWT6  pumptreat.gwfgwt  gwf_pumptreat  gwt_pumptreat
END exchanges

BEGIN solutiongroup  1
  ims6  gwf_pumptreat.ims  gwf_pumptreat
  ims6  gwt_pumptreat.ims  gwt_pumptreat
END solutiongroup  1

