# File generated by Flopy version 3.9.3 on 07/09/2025 at 10:04:43.
BEGIN options
END options

BEGIN timing
  TDIS6  pumptreat.tdis
END timing

BEGIN models
  gwf6  pumptreat.nam  pumptreat
  gwt6  gwt_pumptreat.nam  gwt_pumptreat
END models

BEGIN exchanges
  GWF6-GWT6  pumptreat.gwfgwt  pumptreat  gwt_pumptreat
END exchanges

BEGIN solutiongroup  1
  ims6  gwf_pumptreat.ims  pumptreat
  ims6  gwt_pumptreat.ims  gwt_pumptreat
END solutiongroup  1

