# File generated by Flopy version 3.9.3 on 07/09/2025 at 10:04:43.
BEGIN options
  BUDGET  FILEOUT  pumptreat.bud
  HEAD  FILEOUT  pumptreat.hds
END options

BEGIN period  1
  SAVE  HEAD  LAST
  SAVE  BUDGET  LAST
END period  1

