# File generated by Flopy version 3.9.3 on 07/09/2025 at 10:04:43.
BEGIN options
  auxiliary  CONCENTRATION
  SAVE_FLOWS
END options

BEGIN dimensions
  MAXBOUND  3
END dimensions

BEGIN period  1
  1 41 26 -5.00000000E+01 0
  1 34 26 -5.00000000E+01 0
  1 26 26 -5.00000000E+01 0
END period  1

