# File generated by Flopy version 3.9.3 on 07/09/2025 at 10:04:43.
BEGIN options
  TIME_UNITS  days
END options

BEGIN dimensions
  NPER  2
END dimensions

BEGIN perioddata
       1.00000000  1       1.00000000
    3000.00000000  150       1.00000000
END perioddata

