# File generated by Flopy version 3.9.3 on 07/09/2025 at 10:04:43.
BEGIN options
  SAVE_FLOWS
END options

BEGIN packages
  DIS6  pumptreat.dis  dis
  IC6  pumptreat.ic  ic
  NPF6  pumptreat.npf  npf
  STO6  pumptreat.sto  sto
  CHD6  pumptreat.chd  chd-1
  WEL6  pumptreat.wel  wel-1
  OC6  pumptreat.oc  gwfgwt
END packages

