# File generated by Flopy version 3.9.3 on 06/24/2025 at 20:14:11.
BEGIN options
END options

BEGIN griddata
  strt
    CONSTANT      10.00000000
END griddata

