# File generated by Flopy version 3.9.3 on 07/21/2025 at 11:08:32.
BEGIN options
  BUDGET  FILEOUT  gwf_pumptreatnw.bud
  HEAD  FILEOUT  gwf_pumptreatnw.hds
END options

BEGIN period  1
  SAVE  HEAD  ALL
  SAVE  BUDGET  ALL
END period  1

