# File generated by Flopy version 3.9.3 on 07/21/2025 at 11:08:32.
BEGIN options
  PRINT_OPTION  summary
  COMPLEXITY  simple
END options

