# File generated by Flopy version 3.9.3 on 07/17/2025 at 18:56:56.
BEGIN options
  SAVE_FLOWS
END options

BEGIN griddata
  icelltype
    CONSTANT  1
  k
    CONSTANT       1.00000000
  k33
    CONSTANT       0.30000000
END griddata

