# File generated by Flopy version 3.9.3 on 07/17/2025 at 18:56:56.
BEGIN options
  BUDGET  FILEOUT  gwf_pumptreatnw.bud
  HEAD  FILEOUT  gwf_pumptreatnw.hds
END options

BEGIN period  1
  SAVE  HEAD  ALL
  SAVE  BUDGET  ALL
END period  1

