# File generated by Flopy version 3.9.3 on 07/21/2025 at 11:08:32.
BEGIN options
  SAVE_FLOWS
END options

BEGIN packages
  DIS6  gwf_pumptreatnw.dis  dis
  IC6  gwf_pumptreatnw.ic  ic
  NPF6  gwf_pumptreatnw.npf  npf
  STO6  gwf_pumptreatnw.sto  sto
  CHD6  gwf_pumptreatnw.chd  chd-1
  OC6  gwf_pumptreatnw.oc  gwfgwt
END packages

