# File generated by Flopy version 3.9.3 on 07/14/2025 at 15:39:07.
BEGIN options
  SCHEME  upstream
END options

