# File generated by Flopy version 3.9.3 on 07/17/2025 at 18:56:56.
BEGIN options
END options

BEGIN griddata
  strt
    CONSTANT       0.00000000
END griddata

