# File generated by Flopy version 3.9.3 on 07/17/2025 at 18:56:56.
BEGIN options
  SCHEME  upstream
END options

