# File generated by Flopy version 3.9.3 on 07/21/2025 at 11:08:32.
BEGIN options
END options

BEGIN griddata
  alh
    CONSTANT       1.00000000
  ath1
    CONSTANT       0.50000000
END griddata

