# File generated by Flopy version 3.9.3 on 07/14/2025 at 15:39:07.
BEGIN options
  PRINT_OPTION  summary
END options

BEGIN nonlinear
  UNDER_RELAXATION  none
END nonlinear

BEGIN linear
  LINEAR_ACCELERATION  bicgstab
  SCALING_METHOD  none
  REORDERING_METHOD  none
END linear

