# File generated by Flopy version 3.9.3 on 07/17/2025 at 18:56:56.
BEGIN options
END options

BEGIN packages
  DIS6  gwt_pumptreatnw.dis  dis
  IC6  gwt_pumptreatnw.ic  ic
  ADV6  gwt_pumptreatnw.adv  adv
  DSP6  gwt_pumptreatnw.dsp  dsp
  MST6  gwt_pumptreatnw.mst  mst
  SSM6  gwt_pumptreatnw.ssm  ssm
  CNC6  gwt_pumptreatnw.cnc  cnc
  OC6  gwt_pumptreatnw.oc  oc
END packages

