# File generated by Flopy version 3.9.3 on 07/17/2025 at 18:56:56.
BEGIN options
  BUDGET  FILEOUT  gwt_pumptreatnw.cbc
  CONCENTRATION  FILEOUT  gwt_pumptreatnw.ucn
END options

BEGIN period  1
  SAVE  CONCENTRATION  LAST
  PRINT  CONCENTRATION  LAST
END period  1

