# File generated by Flopy version 3.9.3 on 07/21/2025 at 11:08:32.
BEGIN options
END options

BEGIN griddata
  porosity
    CONSTANT       0.20000000
END griddata

