# File generated by Flopy version 3.9.3 on 07/17/2025 at 18:56:56.
BEGIN options
END options

BEGIN griddata
  porosity
    CONSTANT       0.20000000
END griddata

