# File generated by Flopy version 3.9.3 on 07/17/2025 at 18:56:56.
BEGIN options
END options

BEGIN dimensions
  MAXBOUND  6
END dimensions

BEGIN period  1
  1 41 26    1000.00000000
  1 37 26    1000.00000000
  1 43 26    1000.00000000
  1 34 26    1000.00000000
  1 43 24    1000.00000000
  1 34 23    1000.00000000
END period  1

