# File generated by Flopy version 3.9.3 on 07/17/2025 at 18:56:56.
BEGIN options
END options

BEGIN timing
  TDIS6  gwf_pumptreatnw.tdis
END timing

BEGIN models
  gwf6  gwf_pumptreatnw.nam  gwf_pumptreatnw
  gwt6  gwt_pumptreatnw.nam  gwt_pumptreatnw
END models

BEGIN exchanges
  GWF6-GWT6  pumptreatnw.gwfgwt  gwf_pumptreatnw  gwt_pumptreatnw
END exchanges

BEGIN solutiongroup  1
  ims6  gwf_pumptreatnw.ims  gwf_pumptreatnw
  ims6  gwt_pumptreatnw.ims  gwt_pumptreatnw
END solutiongroup  1

