# File generated by Flopy version 3.9.3 on 07/14/2025 at 15:39:07.
BEGIN options
END options

BEGIN timing
  TDIS6  pumptreatnw.tdis
END timing

BEGIN models
  gwf6  pumptreatnw.nam  pumptreatnw
  gwt6  gwt_pumptreatnw.nam  gwt_pumptreatnw
END models

BEGIN exchanges
  GWF6-GWT6  pumptreatnw.gwfgwt  pumptreatnw  gwt_pumptreatnw
END exchanges

BEGIN solutiongroup  1
  ims6  gwf_pumptreatnw.ims  pumptreatnw
  ims6  gwt_pumptreatnw.ims  gwt_pumptreatnw
END solutiongroup  1

