# File generated by Flopy version 3.9.3 on 07/14/2025 at 15:39:07.
BEGIN options
  auxiliary  CONCENTRATION
  SAVE_FLOWS
END options

BEGIN dimensions
  MAXBOUND  202
END dimensions

BEGIN period  1
  1 1 1 2.50000000E+01 0.00000000E+00
  1 1 101 2.45000000E+01 0.00000000E+00
  1 2 1 2.50000000E+01 0.00000000E+00
  1 2 101 2.45000000E+01 0.00000000E+00
  1 3 1 2.50000000E+01 0.00000000E+00
  1 3 101 2.45000000E+01 0.00000000E+00
  1 4 1 2.50000000E+01 0.00000000E+00
  1 4 101 2.45000000E+01 0.00000000E+00
  1 5 1 2.50000000E+01 0.00000000E+00
  1 5 101 2.45000000E+01 0.00000000E+00
  1 6 1 2.50000000E+01 0.00000000E+00
  1 6 101 2.45000000E+01 0.00000000E+00
  1 7 1 2.50000000E+01 0.00000000E+00
  1 7 101 2.45000000E+01 0.00000000E+00
  1 8 1 2.50000000E+01 0.00000000E+00
  1 8 101 2.45000000E+01 0.00000000E+00
  1 9 1 2.50000000E+01 0.00000000E+00
  1 9 101 2.45000000E+01 0.00000000E+00
  1 10 1 2.50000000E+01 0.00000000E+00
  1 10 101 2.45000000E+01 0.00000000E+00
  1 11 1 2.50000000E+01 0.00000000E+00
  1 11 101 2.45000000E+01 0.00000000E+00
  1 12 1 2.50000000E+01 0.00000000E+00
  1 12 101 2.45000000E+01 0.00000000E+00
  1 13 1 2.50000000E+01 0.00000000E+00
  1 13 101 2.45000000E+01 0.00000000E+00
  1 14 1 2.50000000E+01 0.00000000E+00
  1 14 101 2.45000000E+01 0.00000000E+00
  1 15 1 2.50000000E+01 0.00000000E+00
  1 15 101 2.45000000E+01 0.00000000E+00
  1 16 1 2.50000000E+01 0.00000000E+00
  1 16 101 2.45000000E+01 0.00000000E+00
  1 17 1 2.50000000E+01 0.00000000E+00
  1 17 101 2.45000000E+01 0.00000000E+00
  1 18 1 2.50000000E+01 0.00000000E+00
  1 18 101 2.45000000E+01 0.00000000E+00
  1 19 1 2.50000000E+01 0.00000000E+00
  1 19 101 2.45000000E+01 0.00000000E+00
  1 20 1 2.50000000E+01 0.00000000E+00
  1 20 101 2.45000000E+01 0.00000000E+00
  1 21 1 2.50000000E+01 0.00000000E+00
  1 21 101 2.45000000E+01 0.00000000E+00
  1 22 1 2.50000000E+01 0.00000000E+00
  1 22 101 2.45000000E+01 0.00000000E+00
  1 23 1 2.50000000E+01 0.00000000E+00
  1 23 101 2.45000000E+01 0.00000000E+00
  1 24 1 2.50000000E+01 0.00000000E+00
  1 24 101 2.45000000E+01 0.00000000E+00
  1 25 1 2.50000000E+01 0.00000000E+00
  1 25 101 2.45000000E+01 0.00000000E+00
  1 26 1 2.50000000E+01 0.00000000E+00
  1 26 101 2.45000000E+01 0.00000000E+00
  1 27 1 2.50000000E+01 0.00000000E+00
  1 27 101 2.45000000E+01 0.00000000E+00
  1 28 1 2.50000000E+01 0.00000000E+00
  1 28 101 2.45000000E+01 0.00000000E+00
  1 29 1 2.50000000E+01 0.00000000E+00
  1 29 101 2.45000000E+01 0.00000000E+00
  1 30 1 2.50000000E+01 0.00000000E+00
  1 30 101 2.45000000E+01 0.00000000E+00
  1 31 1 2.50000000E+01 0.00000000E+00
  1 31 101 2.45000000E+01 0.00000000E+00
  1 32 1 2.50000000E+01 0.00000000E+00
  1 32 101 2.45000000E+01 0.00000000E+00
  1 33 1 2.50000000E+01 0.00000000E+00
  1 33 101 2.45000000E+01 0.00000000E+00
  1 34 1 2.50000000E+01 0.00000000E+00
  1 34 101 2.45000000E+01 0.00000000E+00
  1 35 1 2.50000000E+01 0.00000000E+00
  1 35 101 2.45000000E+01 0.00000000E+00
  1 36 1 2.50000000E+01 0.00000000E+00
  1 36 101 2.45000000E+01 0.00000000E+00
  1 37 1 2.50000000E+01 0.00000000E+00
  1 37 101 2.45000000E+01 0.00000000E+00
  1 38 1 2.50000000E+01 0.00000000E+00
  1 38 101 2.45000000E+01 0.00000000E+00
  1 39 1 2.50000000E+01 0.00000000E+00
  1 39 101 2.45000000E+01 0.00000000E+00
  1 40 1 2.50000000E+01 0.00000000E+00
  1 40 101 2.45000000E+01 0.00000000E+00
  1 41 1 2.50000000E+01 0.00000000E+00
  1 41 101 2.45000000E+01 0.00000000E+00
  1 42 1 2.50000000E+01 0.00000000E+00
  1 42 101 2.45000000E+01 0.00000000E+00
  1 43 1 2.50000000E+01 0.00000000E+00
  1 43 101 2.45000000E+01 0.00000000E+00
  1 44 1 2.50000000E+01 0.00000000E+00
  1 44 101 2.45000000E+01 0.00000000E+00
  1 45 1 2.50000000E+01 0.00000000E+00
  1 45 101 2.45000000E+01 0.00000000E+00
  1 46 1 2.50000000E+01 0.00000000E+00
  1 46 101 2.45000000E+01 0.00000000E+00
  1 47 1 2.50000000E+01 0.00000000E+00
  1 47 101 2.45000000E+01 0.00000000E+00
  1 48 1 2.50000000E+01 0.00000000E+00
  1 48 101 2.45000000E+01 0.00000000E+00
  1 49 1 2.50000000E+01 0.00000000E+00
  1 49 101 2.45000000E+01 0.00000000E+00
  1 50 1 2.50000000E+01 0.00000000E+00
  1 50 101 2.45000000E+01 0.00000000E+00
  1 51 1 2.50000000E+01 0.00000000E+00
  1 51 101 2.45000000E+01 0.00000000E+00
  1 52 1 2.50000000E+01 0.00000000E+00
  1 52 101 2.45000000E+01 0.00000000E+00
  1 53 1 2.50000000E+01 0.00000000E+00
  1 53 101 2.45000000E+01 0.00000000E+00
  1 54 1 2.50000000E+01 0.00000000E+00
  1 54 101 2.45000000E+01 0.00000000E+00
  1 55 1 2.50000000E+01 0.00000000E+00
  1 55 101 2.45000000E+01 0.00000000E+00
  1 56 1 2.50000000E+01 0.00000000E+00
  1 56 101 2.45000000E+01 0.00000000E+00
  1 57 1 2.50000000E+01 0.00000000E+00
  1 57 101 2.45000000E+01 0.00000000E+00
  1 58 1 2.50000000E+01 0.00000000E+00
  1 58 101 2.45000000E+01 0.00000000E+00
  1 59 1 2.50000000E+01 0.00000000E+00
  1 59 101 2.45000000E+01 0.00000000E+00
  1 60 1 2.50000000E+01 0.00000000E+00
  1 60 101 2.45000000E+01 0.00000000E+00
  1 61 1 2.50000000E+01 0.00000000E+00
  1 61 101 2.45000000E+01 0.00000000E+00
  1 62 1 2.50000000E+01 0.00000000E+00
  1 62 101 2.45000000E+01 0.00000000E+00
  1 63 1 2.50000000E+01 0.00000000E+00
  1 63 101 2.45000000E+01 0.00000000E+00
  1 64 1 2.50000000E+01 0.00000000E+00
  1 64 101 2.45000000E+01 0.00000000E+00
  1 65 1 2.50000000E+01 0.00000000E+00
  1 65 101 2.45000000E+01 0.00000000E+00
  1 66 1 2.50000000E+01 0.00000000E+00
  1 66 101 2.45000000E+01 0.00000000E+00
  1 67 1 2.50000000E+01 0.00000000E+00
  1 67 101 2.45000000E+01 0.00000000E+00
  1 68 1 2.50000000E+01 0.00000000E+00
  1 68 101 2.45000000E+01 0.00000000E+00
  1 69 1 2.50000000E+01 0.00000000E+00
  1 69 101 2.45000000E+01 0.00000000E+00
  1 70 1 2.50000000E+01 0.00000000E+00
  1 70 101 2.45000000E+01 0.00000000E+00
  1 71 1 2.50000000E+01 0.00000000E+00
  1 71 101 2.45000000E+01 0.00000000E+00
  1 72 1 2.50000000E+01 0.00000000E+00
  1 72 101 2.45000000E+01 0.00000000E+00
  1 73 1 2.50000000E+01 0.00000000E+00
  1 73 101 2.45000000E+01 0.00000000E+00
  1 74 1 2.50000000E+01 0.00000000E+00
  1 74 101 2.45000000E+01 0.00000000E+00
  1 75 1 2.50000000E+01 0.00000000E+00
  1 75 101 2.45000000E+01 0.00000000E+00
  1 76 1 2.50000000E+01 0.00000000E+00
  1 76 101 2.45000000E+01 0.00000000E+00
  1 77 1 2.50000000E+01 0.00000000E+00
  1 77 101 2.45000000E+01 0.00000000E+00
  1 78 1 2.50000000E+01 0.00000000E+00
  1 78 101 2.45000000E+01 0.00000000E+00
  1 79 1 2.50000000E+01 0.00000000E+00
  1 79 101 2.45000000E+01 0.00000000E+00
  1 80 1 2.50000000E+01 0.00000000E+00
  1 80 101 2.45000000E+01 0.00000000E+00
  1 81 1 2.50000000E+01 0.00000000E+00
  1 81 101 2.45000000E+01 0.00000000E+00
  1 82 1 2.50000000E+01 0.00000000E+00
  1 82 101 2.45000000E+01 0.00000000E+00
  1 83 1 2.50000000E+01 0.00000000E+00
  1 83 101 2.45000000E+01 0.00000000E+00
  1 84 1 2.50000000E+01 0.00000000E+00
  1 84 101 2.45000000E+01 0.00000000E+00
  1 85 1 2.50000000E+01 0.00000000E+00
  1 85 101 2.45000000E+01 0.00000000E+00
  1 86 1 2.50000000E+01 0.00000000E+00
  1 86 101 2.45000000E+01 0.00000000E+00
  1 87 1 2.50000000E+01 0.00000000E+00
  1 87 101 2.45000000E+01 0.00000000E+00
  1 88 1 2.50000000E+01 0.00000000E+00
  1 88 101 2.45000000E+01 0.00000000E+00
  1 89 1 2.50000000E+01 0.00000000E+00
  1 89 101 2.45000000E+01 0.00000000E+00
  1 90 1 2.50000000E+01 0.00000000E+00
  1 90 101 2.45000000E+01 0.00000000E+00
  1 91 1 2.50000000E+01 0.00000000E+00
  1 91 101 2.45000000E+01 0.00000000E+00
  1 92 1 2.50000000E+01 0.00000000E+00
  1 92 101 2.45000000E+01 0.00000000E+00
  1 93 1 2.50000000E+01 0.00000000E+00
  1 93 101 2.45000000E+01 0.00000000E+00
  1 94 1 2.50000000E+01 0.00000000E+00
  1 94 101 2.45000000E+01 0.00000000E+00
  1 95 1 2.50000000E+01 0.00000000E+00
  1 95 101 2.45000000E+01 0.00000000E+00
  1 96 1 2.50000000E+01 0.00000000E+00
  1 96 101 2.45000000E+01 0.00000000E+00
  1 97 1 2.50000000E+01 0.00000000E+00
  1 97 101 2.45000000E+01 0.00000000E+00
  1 98 1 2.50000000E+01 0.00000000E+00
  1 98 101 2.45000000E+01 0.00000000E+00
  1 99 1 2.50000000E+01 0.00000000E+00
  1 99 101 2.45000000E+01 0.00000000E+00
  1 100 1 2.50000000E+01 0.00000000E+00
  1 100 101 2.45000000E+01 0.00000000E+00
  1 101 1 2.50000000E+01 0.00000000E+00
  1 101 101 2.45000000E+01 0.00000000E+00
END period  1

