# File generated by Flopy version 3.9.3 on 07/14/2025 at 15:39:07.
BEGIN options
END options

BEGIN dimensions
  NLAY  1
  NROW  101
  NCOL  101
END dimensions

BEGIN griddata
  delr
    CONSTANT       1.00000000
  delc
    CONSTANT       1.00000000
  top
    CONSTANT       0.00000000
  botm
    CONSTANT     -30.00000000
END griddata

