# File generated by Flopy version 3.9.3 on 07/14/2025 at 15:39:07.
BEGIN options
  SAVE_FLOWS
END options

BEGIN packages
  DIS6  pumptreatnw.dis  dis
  IC6  pumptreatnw.ic  ic
  NPF6  pumptreatnw.npf  npf
  STO6  pumptreatnw.sto  sto
  CHD6  pumptreatnw.chd  chd-1
  OC6  pumptreatnw.oc  gwfgwt
END packages

