# File generated by Flopy version 3.9.3 on 07/14/2025 at 20:21:42.
BEGIN options
  BUDGET  FILEOUT  pumptreatnw.bud
  HEAD  FILEOUT  pumptreatnw.hds
END options

BEGIN period  1
  SAVE  HEAD  LAST
  SAVE  BUDGET  LAST
END period  1

